[General]
network = LatEx
sim-time-limit =  5min

**.host1.**.ipcAddress = "h1"
**.host2.**.ipcAddress = "h2"

**.router1.**.ipcAddress = "r1"
**.router2.**.ipcAddress = "r2"
**.router3.**.ipcAddress = "r3"
**.router4.**.ipcAddress = "r4"


**.host*.ipcProcess1.difName = "NET"
**.router*.relayIpc.difName = "NET"

**.host1.ipcProcess0.difName = "shimHR1"
**.router1.ipcProcess[0].difName = "shimHR1"

**.host2.ipcProcess0.difName = "shimHR2"
**.router4.ipcProcess[0].difName = "shimHR2"

**.router1.ipcProcess[1].difName = "shim12"
**.router2.ipcProcess[0].difName = "shim12"

**.router1.ipcProcess[2].difName = "shim13"
**.router3.ipcProcess[0].difName = "shim13"

**.router4.ipcProcess[1].difName = "shim24"
**.router2.ipcProcess[1].difName = "shim24"

**.router4.ipcProcess[2].difName = "shim34"
**.router3.ipcProcess[1].difName = "shim34"


**.flowAllocator.newFlowReqPolicyType = "MinComparer"

**.ra.qoscubesData = xmldoc("QoS.xml", "Configuration/QoSCubesSet")

**.ra.preallocation = xmldoc("connections.xml", "Configuration/ConnectionSet")

**.difAllocator.configData = xmldoc("config.xml", "Configuration/DA")
**.difAllocator.directory.configData = xmldoc("config.xml", "Configuration/DA")


**.router1.**.printAtEnd = true
**.router4.**.printAtEnd = true

[Config HopDV]

**.ipcProcess1.resourceAllocator.pdufgPolicyName = "SimpleGenerator"
**.relayIpc.resourceAllocator.pdufgPolicyName = "SimpleGenerator"

**.ipcProcess1.routingPolicyName = "SimpleDV"
**.relayIpc.routingPolicyName = "SimpleDV"


[Config HopLS]

**.ipcProcess1.resourceAllocator.pdufgPolicyName = "SimpleGenerator"
**.relayIpc.resourceAllocator.pdufgPolicyName = "SimpleGenerator"

**.ipcProcess1.routingPolicyName = "SimpleLS"
**.relayIpc.routingPolicyName = "SimpleLS"


[Config LatDV]


**.ipcProcess1.routingPolicy.infMetric = 1000
**.relayIpc.routingPolicy.infMetric = 1000

**.ipcProcess1.resourceAllocator.pdufgPolicyName = "LatGenerator"
**.relayIpc.resourceAllocator.pdufgPolicyName = "LatGenerator"

**.ipcProcess1.routingPolicyName = "SimpleDV"
**.relayIpc.routingPolicyName = "SimpleDV"


[Config LatLS]

**.ipcProcess1.resourceAllocator.pdufgPolicyName = "LatGenerator"
**.relayIpc.resourceAllocator.pdufgPolicyName = "LatGenerator"

**.ipcProcess1.routingPolicyName = "SimpleLS"
**.relayIpc.routingPolicyName = "SimpleLS"
