[General] 
network = SWDCLSScen50
sim-time-limit = 5min
repeat = 5
seed-set = ${repetition}

#**.scalar-recording =true
#**.vector-recording =true
#**.pduft-length.scalar-recording = true
#
# Appliction entities naming:
#
 **.VIFIBN3.AP.apName = "App3"
 **.VIFIBN1.AP.apName = "App1"
 **.VIFIBN5.AP.apName = "App5"
 **.VIFIBN6.AP.apName = "App6"
 **.VIFIBN15.AP.apName = "App15"
 **.VIFIBN17.AP.apName = "App17"
 **.VIFIBN18.AP.apName = "App18"
 **.VIFIBN20.AP.apName = "App20"
 **.VIFIBN22.AP.apName = "App22"
 **.VIFIBN25.AP.apName = "App25"
 **.VIFIBN32.AP.apName = "App32"
 **.VIFIBN35.AP.apName = "App35"
 **.VIFIBN39.AP.apName = "App39"
 **.VIFIBN2.AP.apName = "App2"
 **.VIFIBN7.AP.apName = "App7"
 **.VIFIBN11.AP.apName = "App11"
 **.VIFIBN12.AP.apName = "App12"
 **.VIFIBN16.AP.apName = "App16"
 **.VIFIBN19.AP.apName = "App19"
 **.VIFIBN4.AP.apName = "App4"
 **.VIFIBN13.AP.apName = "App13"
 **.VIFIBN8.AP.apName = "App8"
 **.VIFIBN10.AP.apName = "App10"
 **.VIFIBN9.AP.apName = "App9"
 **.VIFIBN14.AP.apName = "App14"
 **.VIFIBN24.AP.apName = "App24"
 **.VIFIBN26.AP.apName = "App26"
 **.VIFIBN27.AP.apName = "App27"
 **.VIFIBN23.AP.apName = "App23"
 **.VIFIBN21.AP.apName = "App21"
 **.VIFIBN28.AP.apName = "App28"
 **.VIFIBN36.AP.apName = "App36"
 **.VIFIBN42.AP.apName = "App42"
 **.VIFIBN30.AP.apName = "App30"
 **.VIFIBN33.AP.apName = "App33"
 **.VIFIBN29.AP.apName = "App29"
 **.VIFIBN34.AP.apName = "App34"
 **.VIFIBN37.AP.apName = "App37"
 **.VIFIBN41.AP.apName = "App41"
 **.VIFIBN43.AP.apName = "App43"
 **.VIFIBN40.AP.apName = "App40"
 **.VIFIBN38.AP.apName = "App38"
 **.VIFIBN31.AP.apName = "App31"
 **.VIFIBN44.AP.apName = "App44"
 **.VIFIBN45.AP.apName = "App45"
 **.VIFIBN46.AP.apName = "App46"
 **.VIFIBN50.AP.apName = "App50"
 **.VIFIBN47.AP.apName = "App47"
 **.VIFIBN49.AP.apName = "App49"
 **.VIFIBN48.AP.apName = "App48"
**.applicationEntity.aeType 	= "AEMyPing"
**.iae.aeName 			= "MyPing"


**.VIFIBN1.ShimIPC0.difName 		= "Shim1To5"
**.VIFIBN1.ShimIPC0.ipcAddress 	 	    = "1"
**.VIFIBN5.ShimIPC0.difName 		= "Shim1To5"
**.VIFIBN5.ShimIPC0.ipcAddress 	 	    = "2"
**.VIFIBN1.ShimIPC1.difName 		= "Shim1To6"
**.VIFIBN1.ShimIPC1.ipcAddress 	 	    = "1"
**.VIFIBN6.ShimIPC0.difName 		= "Shim1To6"
**.VIFIBN6.ShimIPC0.ipcAddress 	 	    = "2"
**.VIFIBN1.ShimIPC2.difName 		= "Shim1To15"
**.VIFIBN1.ShimIPC2.ipcAddress 	 	    = "1"
**.VIFIBN15.ShimIPC0.difName 		= "Shim1To15"
**.VIFIBN15.ShimIPC0.ipcAddress 	 	    = "2"
**.VIFIBN1.ShimIPC3.difName 		= "Shim1To17"
**.VIFIBN1.ShimIPC3.ipcAddress 	 	    = "1"
**.VIFIBN17.ShimIPC0.difName 		= "Shim1To17"
**.VIFIBN17.ShimIPC0.ipcAddress 	 	    = "2"
**.VIFIBN1.ShimIPC4.difName 		= "Shim1To18"
**.VIFIBN1.ShimIPC4.ipcAddress 	 	    = "1"
**.VIFIBN18.ShimIPC0.difName 		= "Shim1To18"
**.VIFIBN18.ShimIPC0.ipcAddress 	 	    = "2"
**.VIFIBN1.ShimIPC5.difName 		= "Shim1To20"
**.VIFIBN1.ShimIPC5.ipcAddress 	 	    = "1"
**.VIFIBN20.ShimIPC0.difName 		= "Shim1To20"
**.VIFIBN20.ShimIPC0.ipcAddress 	 	    = "2"
**.VIFIBN1.ShimIPC6.difName 		= "Shim1To22"
**.VIFIBN1.ShimIPC6.ipcAddress 	 	    = "1"
**.VIFIBN22.ShimIPC0.difName 		= "Shim1To22"
**.VIFIBN22.ShimIPC0.ipcAddress 	 	    = "2"
**.VIFIBN1.ShimIPC7.difName 		= "Shim1To25"
**.VIFIBN1.ShimIPC7.ipcAddress 	 	    = "1"
**.VIFIBN25.ShimIPC0.difName 		= "Shim1To25"
**.VIFIBN25.ShimIPC0.ipcAddress 	 	    = "2"
**.VIFIBN1.ShimIPC8.difName 		= "Shim1To32"
**.VIFIBN1.ShimIPC8.ipcAddress 	 	    = "1"
**.VIFIBN32.ShimIPC0.difName 		= "Shim1To32"
**.VIFIBN32.ShimIPC0.ipcAddress 	 	    = "2"
**.VIFIBN1.ShimIPC9.difName 		= "Shim1To35"
**.VIFIBN1.ShimIPC9.ipcAddress 	 	    = "1"
**.VIFIBN35.ShimIPC0.difName 		= "Shim1To35"
**.VIFIBN35.ShimIPC0.ipcAddress 	 	    = "2"
**.VIFIBN1.ShimIPC10.difName 		= "Shim1To39"
**.VIFIBN1.ShimIPC10.ipcAddress 	 	    = "1"
**.VIFIBN39.ShimIPC0.difName 		= "Shim1To39"
**.VIFIBN39.ShimIPC0.ipcAddress 	 	    = "2"
**.VIFIBN1.ShimIPC11.difName 		= "Shim1To11"
**.VIFIBN1.ShimIPC11.ipcAddress 	 	    = "1"
**.VIFIBN11.ShimIPC0.difName 		= "Shim1To11"
**.VIFIBN11.ShimIPC0.ipcAddress 	 	    = "2"
**.VIFIBN2.ShimIPC0.difName 		= "Shim2To7"
**.VIFIBN2.ShimIPC0.ipcAddress 	 	    = "1"
**.VIFIBN7.ShimIPC0.difName 		= "Shim2To7"
**.VIFIBN7.ShimIPC0.ipcAddress 	 	    = "2"
**.VIFIBN2.ShimIPC1.difName 		= "Shim2To11"
**.VIFIBN2.ShimIPC1.ipcAddress 	 	    = "1"
**.VIFIBN11.ShimIPC1.difName 		= "Shim2To11"
**.VIFIBN11.ShimIPC1.ipcAddress 	 	    = "2"
**.VIFIBN2.ShimIPC2.difName 		= "Shim2To12"
**.VIFIBN2.ShimIPC2.ipcAddress 	 	    = "1"
**.VIFIBN12.ShimIPC0.difName 		= "Shim2To12"
**.VIFIBN12.ShimIPC0.ipcAddress 	 	    = "2"
**.VIFIBN2.ShimIPC3.difName 		= "Shim2To16"
**.VIFIBN2.ShimIPC3.ipcAddress 	 	    = "1"
**.VIFIBN16.ShimIPC0.difName 		= "Shim2To16"
**.VIFIBN16.ShimIPC0.ipcAddress 	 	    = "2"
**.VIFIBN2.ShimIPC4.difName 		= "Shim2To19"
**.VIFIBN2.ShimIPC4.ipcAddress 	 	    = "1"
**.VIFIBN19.ShimIPC0.difName 		= "Shim2To19"
**.VIFIBN19.ShimIPC0.ipcAddress 	 	    = "2"
**.VIFIBN2.ShimIPC5.difName 		= "Shim2To4"
**.VIFIBN2.ShimIPC5.ipcAddress 	 	    = "1"
**.VIFIBN4.ShimIPC0.difName 		= "Shim2To4"
**.VIFIBN4.ShimIPC0.ipcAddress 	 	    = "2"
**.VIFIBN2.ShimIPC6.difName 		= "Shim2To14"
**.VIFIBN2.ShimIPC6.ipcAddress 	 	    = "1"
**.VIFIBN14.ShimIPC0.difName 		= "Shim2To14"
**.VIFIBN14.ShimIPC0.ipcAddress 	 	    = "2"
**.VIFIBN3.ShimIPC0.difName 		= "Shim3To1"
**.VIFIBN3.ShimIPC0.ipcAddress 	 	    = "1"
**.VIFIBN1.ShimIPC12.difName 		= "Shim3To1"
**.VIFIBN1.ShimIPC12.ipcAddress 	 	    = "2"
**.VIFIBN3.ShimIPC1.difName 		= "Shim3To2"
**.VIFIBN3.ShimIPC1.ipcAddress 	 	    = "1"
**.VIFIBN2.ShimIPC7.difName 		= "Shim3To2"
**.VIFIBN2.ShimIPC7.ipcAddress 	 	    = "2"
**.VIFIBN3.ShimIPC2.difName 		= "Shim3To4"
**.VIFIBN3.ShimIPC2.ipcAddress 	 	    = "1"
**.VIFIBN4.ShimIPC1.difName 		= "Shim3To4"
**.VIFIBN4.ShimIPC1.ipcAddress 	 	    = "2"
**.VIFIBN3.ShimIPC3.difName 		= "Shim3To5"
**.VIFIBN3.ShimIPC3.ipcAddress 	 	    = "1"
**.VIFIBN5.ShimIPC1.difName 		= "Shim3To5"
**.VIFIBN5.ShimIPC1.ipcAddress 	 	    = "2"
**.VIFIBN3.ShimIPC4.difName 		= "Shim3To6"
**.VIFIBN3.ShimIPC4.ipcAddress 	 	    = "1"
**.VIFIBN6.ShimIPC1.difName 		= "Shim3To6"
**.VIFIBN6.ShimIPC1.ipcAddress 	 	    = "2"
**.VIFIBN3.ShimIPC5.difName 		= "Shim3To7"
**.VIFIBN3.ShimIPC5.ipcAddress 	 	    = "1"
**.VIFIBN7.ShimIPC1.difName 		= "Shim3To7"
**.VIFIBN7.ShimIPC1.ipcAddress 	 	    = "2"
**.VIFIBN3.ShimIPC6.difName 		= "Shim3To12"
**.VIFIBN3.ShimIPC6.ipcAddress 	 	    = "1"
**.VIFIBN12.ShimIPC1.difName 		= "Shim3To12"
**.VIFIBN12.ShimIPC1.ipcAddress 	 	    = "2"
**.VIFIBN3.ShimIPC7.difName 		= "Shim3To13"
**.VIFIBN3.ShimIPC7.ipcAddress 	 	    = "1"
**.VIFIBN13.ShimIPC0.difName 		= "Shim3To13"
**.VIFIBN13.ShimIPC0.ipcAddress 	 	    = "2"
**.VIFIBN3.ShimIPC8.difName 		= "Shim3To15"
**.VIFIBN3.ShimIPC8.ipcAddress 	 	    = "1"
**.VIFIBN15.ShimIPC1.difName 		= "Shim3To15"
**.VIFIBN15.ShimIPC1.ipcAddress 	 	    = "2"
**.VIFIBN3.ShimIPC9.difName 		= "Shim3To16"
**.VIFIBN3.ShimIPC9.ipcAddress 	 	    = "1"
**.VIFIBN16.ShimIPC1.difName 		= "Shim3To16"
**.VIFIBN16.ShimIPC1.ipcAddress 	 	    = "2"
**.VIFIBN3.ShimIPC10.difName 		= "Shim3To17"
**.VIFIBN3.ShimIPC10.ipcAddress 	 	    = "1"
**.VIFIBN17.ShimIPC1.difName 		= "Shim3To17"
**.VIFIBN17.ShimIPC1.ipcAddress 	 	    = "2"
**.VIFIBN4.ShimIPC2.difName 		= "Shim4To8"
**.VIFIBN4.ShimIPC2.ipcAddress 	 	    = "1"
**.VIFIBN8.ShimIPC0.difName 		= "Shim4To8"
**.VIFIBN8.ShimIPC0.ipcAddress 	 	    = "2"
**.VIFIBN4.ShimIPC3.difName 		= "Shim4To10"
**.VIFIBN4.ShimIPC3.ipcAddress 	 	    = "1"
**.VIFIBN10.ShimIPC0.difName 		= "Shim4To10"
**.VIFIBN10.ShimIPC0.ipcAddress 	 	    = "2"
**.VIFIBN5.ShimIPC2.difName 		= "Shim5To4"
**.VIFIBN5.ShimIPC2.ipcAddress 	 	    = "1"
**.VIFIBN4.ShimIPC4.difName 		= "Shim5To4"
**.VIFIBN4.ShimIPC4.ipcAddress 	 	    = "2"
**.VIFIBN5.ShimIPC3.difName 		= "Shim5To6"
**.VIFIBN5.ShimIPC3.ipcAddress 	 	    = "1"
**.VIFIBN6.ShimIPC2.difName 		= "Shim5To6"
**.VIFIBN6.ShimIPC2.ipcAddress 	 	    = "2"
**.VIFIBN5.ShimIPC4.difName 		= "Shim5To7"
**.VIFIBN5.ShimIPC4.ipcAddress 	 	    = "1"
**.VIFIBN7.ShimIPC2.difName 		= "Shim5To7"
**.VIFIBN7.ShimIPC2.ipcAddress 	 	    = "2"
**.VIFIBN5.ShimIPC5.difName 		= "Shim5To8"
**.VIFIBN5.ShimIPC5.ipcAddress 	 	    = "1"
**.VIFIBN8.ShimIPC1.difName 		= "Shim5To8"
**.VIFIBN8.ShimIPC1.ipcAddress 	 	    = "2"
**.VIFIBN5.ShimIPC6.difName 		= "Shim5To9"
**.VIFIBN5.ShimIPC6.ipcAddress 	 	    = "1"
**.VIFIBN9.ShimIPC0.difName 		= "Shim5To9"
**.VIFIBN9.ShimIPC0.ipcAddress 	 	    = "2"
**.VIFIBN5.ShimIPC7.difName 		= "Shim5To13"
**.VIFIBN5.ShimIPC7.ipcAddress 	 	    = "1"
**.VIFIBN13.ShimIPC1.difName 		= "Shim5To13"
**.VIFIBN13.ShimIPC1.ipcAddress 	 	    = "2"
**.VIFIBN5.ShimIPC8.difName 		= "Shim5To14"
**.VIFIBN5.ShimIPC8.ipcAddress 	 	    = "1"
**.VIFIBN14.ShimIPC1.difName 		= "Shim5To14"
**.VIFIBN14.ShimIPC1.ipcAddress 	 	    = "2"
**.VIFIBN5.ShimIPC9.difName 		= "Shim5To10"
**.VIFIBN5.ShimIPC9.ipcAddress 	 	    = "1"
**.VIFIBN10.ShimIPC1.difName 		= "Shim5To10"
**.VIFIBN10.ShimIPC1.ipcAddress 	 	    = "2"
**.VIFIBN5.ShimIPC10.difName 		= "Shim5To12"
**.VIFIBN5.ShimIPC10.ipcAddress 	 	    = "1"
**.VIFIBN12.ShimIPC2.difName 		= "Shim5To12"
**.VIFIBN12.ShimIPC2.ipcAddress 	 	    = "2"
**.VIFIBN5.ShimIPC11.difName 		= "Shim5To15"
**.VIFIBN5.ShimIPC11.ipcAddress 	 	    = "1"
**.VIFIBN15.ShimIPC2.difName 		= "Shim5To15"
**.VIFIBN15.ShimIPC2.ipcAddress 	 	    = "2"
**.VIFIBN5.ShimIPC12.difName 		= "Shim5To17"
**.VIFIBN5.ShimIPC12.ipcAddress 	 	    = "1"
**.VIFIBN17.ShimIPC2.difName 		= "Shim5To17"
**.VIFIBN17.ShimIPC2.ipcAddress 	 	    = "2"
**.VIFIBN6.ShimIPC3.difName 		= "Shim6To2"
**.VIFIBN6.ShimIPC3.ipcAddress 	 	    = "1"
**.VIFIBN2.ShimIPC8.difName 		= "Shim6To2"
**.VIFIBN2.ShimIPC8.ipcAddress 	 	    = "2"
**.VIFIBN6.ShimIPC4.difName 		= "Shim6To4"
**.VIFIBN6.ShimIPC4.ipcAddress 	 	    = "1"
**.VIFIBN4.ShimIPC5.difName 		= "Shim6To4"
**.VIFIBN4.ShimIPC5.ipcAddress 	 	    = "2"
**.VIFIBN6.ShimIPC5.difName 		= "Shim6To7"
**.VIFIBN6.ShimIPC5.ipcAddress 	 	    = "1"
**.VIFIBN7.ShimIPC3.difName 		= "Shim6To7"
**.VIFIBN7.ShimIPC3.ipcAddress 	 	    = "2"
**.VIFIBN6.ShimIPC6.difName 		= "Shim6To12"
**.VIFIBN6.ShimIPC6.ipcAddress 	 	    = "1"
**.VIFIBN12.ShimIPC3.difName 		= "Shim6To12"
**.VIFIBN12.ShimIPC3.ipcAddress 	 	    = "2"
**.VIFIBN6.ShimIPC7.difName 		= "Shim6To13"
**.VIFIBN6.ShimIPC7.ipcAddress 	 	    = "1"
**.VIFIBN13.ShimIPC2.difName 		= "Shim6To13"
**.VIFIBN13.ShimIPC2.ipcAddress 	 	    = "2"
**.VIFIBN6.ShimIPC8.difName 		= "Shim6To14"
**.VIFIBN6.ShimIPC8.ipcAddress 	 	    = "1"
**.VIFIBN14.ShimIPC2.difName 		= "Shim6To14"
**.VIFIBN14.ShimIPC2.ipcAddress 	 	    = "2"
**.VIFIBN6.ShimIPC9.difName 		= "Shim6To9"
**.VIFIBN6.ShimIPC9.ipcAddress 	 	    = "1"
**.VIFIBN9.ShimIPC1.difName 		= "Shim6To9"
**.VIFIBN9.ShimIPC1.ipcAddress 	 	    = "2"
**.VIFIBN6.ShimIPC10.difName 		= "Shim6To10"
**.VIFIBN6.ShimIPC10.ipcAddress 	 	    = "1"
**.VIFIBN10.ShimIPC2.difName 		= "Shim6To10"
**.VIFIBN10.ShimIPC2.ipcAddress 	 	    = "2"
**.VIFIBN6.ShimIPC11.difName 		= "Shim6To20"
**.VIFIBN6.ShimIPC11.ipcAddress 	 	    = "1"
**.VIFIBN20.ShimIPC1.difName 		= "Shim6To20"
**.VIFIBN20.ShimIPC1.ipcAddress 	 	    = "2"
**.VIFIBN6.ShimIPC12.difName 		= "Shim6To26"
**.VIFIBN6.ShimIPC12.ipcAddress 	 	    = "1"
**.VIFIBN26.ShimIPC0.difName 		= "Shim6To26"
**.VIFIBN26.ShimIPC0.ipcAddress 	 	    = "2"
**.VIFIBN7.ShimIPC4.difName 		= "Shim7To4"
**.VIFIBN7.ShimIPC4.ipcAddress 	 	    = "1"
**.VIFIBN4.ShimIPC6.difName 		= "Shim7To4"
**.VIFIBN4.ShimIPC6.ipcAddress 	 	    = "2"
**.VIFIBN7.ShimIPC5.difName 		= "Shim7To8"
**.VIFIBN7.ShimIPC5.ipcAddress 	 	    = "1"
**.VIFIBN8.ShimIPC2.difName 		= "Shim7To8"
**.VIFIBN8.ShimIPC2.ipcAddress 	 	    = "2"
**.VIFIBN7.ShimIPC6.difName 		= "Shim7To9"
**.VIFIBN7.ShimIPC6.ipcAddress 	 	    = "1"
**.VIFIBN9.ShimIPC2.difName 		= "Shim7To9"
**.VIFIBN9.ShimIPC2.ipcAddress 	 	    = "2"
**.VIFIBN7.ShimIPC7.difName 		= "Shim7To10"
**.VIFIBN7.ShimIPC7.ipcAddress 	 	    = "1"
**.VIFIBN10.ShimIPC3.difName 		= "Shim7To10"
**.VIFIBN10.ShimIPC3.ipcAddress 	 	    = "2"
**.VIFIBN7.ShimIPC8.difName 		= "Shim7To13"
**.VIFIBN7.ShimIPC8.ipcAddress 	 	    = "1"
**.VIFIBN13.ShimIPC3.difName 		= "Shim7To13"
**.VIFIBN13.ShimIPC3.ipcAddress 	 	    = "2"
**.VIFIBN7.ShimIPC9.difName 		= "Shim7To21"
**.VIFIBN7.ShimIPC9.ipcAddress 	 	    = "1"
**.VIFIBN21.ShimIPC0.difName 		= "Shim7To21"
**.VIFIBN21.ShimIPC0.ipcAddress 	 	    = "2"
**.VIFIBN8.ShimIPC3.difName 		= "Shim8To14"
**.VIFIBN8.ShimIPC3.ipcAddress 	 	    = "1"
**.VIFIBN14.ShimIPC3.difName 		= "Shim8To14"
**.VIFIBN14.ShimIPC3.ipcAddress 	 	    = "2"
**.VIFIBN8.ShimIPC4.difName 		= "Shim8To9"
**.VIFIBN8.ShimIPC4.ipcAddress 	 	    = "1"
**.VIFIBN9.ShimIPC3.difName 		= "Shim8To9"
**.VIFIBN9.ShimIPC3.ipcAddress 	 	    = "2"
**.VIFIBN8.ShimIPC5.difName 		= "Shim8To23"
**.VIFIBN8.ShimIPC5.ipcAddress 	 	    = "1"
**.VIFIBN23.ShimIPC0.difName 		= "Shim8To23"
**.VIFIBN23.ShimIPC0.ipcAddress 	 	    = "2"
**.VIFIBN10.ShimIPC4.difName 		= "Shim10To14"
**.VIFIBN10.ShimIPC4.ipcAddress 	 	    = "1"
**.VIFIBN14.ShimIPC4.difName 		= "Shim10To14"
**.VIFIBN14.ShimIPC4.ipcAddress 	 	    = "2"
**.VIFIBN10.ShimIPC5.difName 		= "Shim10To24"
**.VIFIBN10.ShimIPC5.ipcAddress 	 	    = "1"
**.VIFIBN24.ShimIPC0.difName 		= "Shim10To24"
**.VIFIBN24.ShimIPC0.ipcAddress 	 	    = "2"
**.VIFIBN10.ShimIPC6.difName 		= "Shim10To26"
**.VIFIBN10.ShimIPC6.ipcAddress 	 	    = "1"
**.VIFIBN26.ShimIPC1.difName 		= "Shim10To26"
**.VIFIBN26.ShimIPC1.ipcAddress 	 	    = "2"
**.VIFIBN10.ShimIPC7.difName 		= "Shim10To27"
**.VIFIBN10.ShimIPC7.ipcAddress 	 	    = "1"
**.VIFIBN27.ShimIPC0.difName 		= "Shim10To27"
**.VIFIBN27.ShimIPC0.ipcAddress 	 	    = "2"
**.VIFIBN10.ShimIPC8.difName 		= "Shim10To29"
**.VIFIBN10.ShimIPC8.ipcAddress 	 	    = "1"
**.VIFIBN29.ShimIPC0.difName 		= "Shim10To29"
**.VIFIBN29.ShimIPC0.ipcAddress 	 	    = "2"
**.VIFIBN11.ShimIPC2.difName 		= "Shim11To4"
**.VIFIBN11.ShimIPC2.ipcAddress 	 	    = "1"
**.VIFIBN4.ShimIPC7.difName 		= "Shim11To4"
**.VIFIBN4.ShimIPC7.ipcAddress 	 	    = "2"
**.VIFIBN11.ShimIPC3.difName 		= "Shim11To8"
**.VIFIBN11.ShimIPC3.ipcAddress 	 	    = "1"
**.VIFIBN8.ShimIPC6.difName 		= "Shim11To8"
**.VIFIBN8.ShimIPC6.ipcAddress 	 	    = "2"
**.VIFIBN11.ShimIPC4.difName 		= "Shim11To9"
**.VIFIBN11.ShimIPC4.ipcAddress 	 	    = "1"
**.VIFIBN9.ShimIPC4.difName 		= "Shim11To9"
**.VIFIBN9.ShimIPC4.ipcAddress 	 	    = "2"
**.VIFIBN11.ShimIPC5.difName 		= "Shim11To16"
**.VIFIBN11.ShimIPC5.ipcAddress 	 	    = "1"
**.VIFIBN16.ShimIPC2.difName 		= "Shim11To16"
**.VIFIBN16.ShimIPC2.ipcAddress 	 	    = "2"
**.VIFIBN11.ShimIPC6.difName 		= "Shim11To19"
**.VIFIBN11.ShimIPC6.ipcAddress 	 	    = "1"
**.VIFIBN19.ShimIPC1.difName 		= "Shim11To19"
**.VIFIBN19.ShimIPC1.ipcAddress 	 	    = "2"
**.VIFIBN11.ShimIPC7.difName 		= "Shim11To23"
**.VIFIBN11.ShimIPC7.ipcAddress 	 	    = "1"
**.VIFIBN23.ShimIPC1.difName 		= "Shim11To23"
**.VIFIBN23.ShimIPC1.ipcAddress 	 	    = "2"
**.VIFIBN11.ShimIPC8.difName 		= "Shim11To24"
**.VIFIBN11.ShimIPC8.ipcAddress 	 	    = "1"
**.VIFIBN24.ShimIPC1.difName 		= "Shim11To24"
**.VIFIBN24.ShimIPC1.ipcAddress 	 	    = "2"
**.VIFIBN12.ShimIPC4.difName 		= "Shim12To4"
**.VIFIBN12.ShimIPC4.ipcAddress 	 	    = "1"
**.VIFIBN4.ShimIPC8.difName 		= "Shim12To4"
**.VIFIBN4.ShimIPC8.ipcAddress 	 	    = "2"
**.VIFIBN12.ShimIPC5.difName 		= "Shim12To8"
**.VIFIBN12.ShimIPC5.ipcAddress 	 	    = "1"
**.VIFIBN8.ShimIPC7.difName 		= "Shim12To8"
**.VIFIBN8.ShimIPC7.ipcAddress 	 	    = "2"
**.VIFIBN12.ShimIPC6.difName 		= "Shim12To14"
**.VIFIBN12.ShimIPC6.ipcAddress 	 	    = "1"
**.VIFIBN14.ShimIPC5.difName 		= "Shim12To14"
**.VIFIBN14.ShimIPC5.ipcAddress 	 	    = "2"
**.VIFIBN12.ShimIPC7.difName 		= "Shim12To31"
**.VIFIBN12.ShimIPC7.ipcAddress 	 	    = "1"
**.VIFIBN31.ShimIPC0.difName 		= "Shim12To31"
**.VIFIBN31.ShimIPC0.ipcAddress 	 	    = "2"
**.VIFIBN13.ShimIPC4.difName 		= "Shim13To21"
**.VIFIBN13.ShimIPC4.ipcAddress 	 	    = "1"
**.VIFIBN21.ShimIPC1.difName 		= "Shim13To21"
**.VIFIBN21.ShimIPC1.ipcAddress 	 	    = "2"
**.VIFIBN13.ShimIPC5.difName 		= "Shim13To24"
**.VIFIBN13.ShimIPC5.ipcAddress 	 	    = "1"
**.VIFIBN24.ShimIPC2.difName 		= "Shim13To24"
**.VIFIBN24.ShimIPC2.ipcAddress 	 	    = "2"
**.VIFIBN13.ShimIPC6.difName 		= "Shim13To26"
**.VIFIBN13.ShimIPC6.ipcAddress 	 	    = "1"
**.VIFIBN26.ShimIPC2.difName 		= "Shim13To26"
**.VIFIBN26.ShimIPC2.ipcAddress 	 	    = "2"
**.VIFIBN13.ShimIPC7.difName 		= "Shim13To27"
**.VIFIBN13.ShimIPC7.ipcAddress 	 	    = "1"
**.VIFIBN27.ShimIPC1.difName 		= "Shim13To27"
**.VIFIBN27.ShimIPC1.ipcAddress 	 	    = "2"
**.VIFIBN13.ShimIPC8.difName 		= "Shim13To28"
**.VIFIBN13.ShimIPC8.ipcAddress 	 	    = "1"
**.VIFIBN28.ShimIPC0.difName 		= "Shim13To28"
**.VIFIBN28.ShimIPC0.ipcAddress 	 	    = "2"
**.VIFIBN14.ShimIPC6.difName 		= "Shim14To47"
**.VIFIBN14.ShimIPC6.ipcAddress 	 	    = "1"
**.VIFIBN47.ShimIPC0.difName 		= "Shim14To47"
**.VIFIBN47.ShimIPC0.ipcAddress 	 	    = "2"
**.VIFIBN15.ShimIPC3.difName 		= "Shim15To4"
**.VIFIBN15.ShimIPC3.ipcAddress 	 	    = "1"
**.VIFIBN4.ShimIPC9.difName 		= "Shim15To4"
**.VIFIBN4.ShimIPC9.ipcAddress 	 	    = "2"
**.VIFIBN15.ShimIPC4.difName 		= "Shim15To7"
**.VIFIBN15.ShimIPC4.ipcAddress 	 	    = "1"
**.VIFIBN7.ShimIPC10.difName 		= "Shim15To7"
**.VIFIBN7.ShimIPC10.ipcAddress 	 	    = "2"
**.VIFIBN15.ShimIPC5.difName 		= "Shim15To8"
**.VIFIBN15.ShimIPC5.ipcAddress 	 	    = "1"
**.VIFIBN8.ShimIPC8.difName 		= "Shim15To8"
**.VIFIBN8.ShimIPC8.ipcAddress 	 	    = "2"
**.VIFIBN15.ShimIPC6.difName 		= "Shim15To9"
**.VIFIBN15.ShimIPC6.ipcAddress 	 	    = "1"
**.VIFIBN9.ShimIPC5.difName 		= "Shim15To9"
**.VIFIBN9.ShimIPC5.ipcAddress 	 	    = "2"
**.VIFIBN15.ShimIPC7.difName 		= "Shim15To12"
**.VIFIBN15.ShimIPC7.ipcAddress 	 	    = "1"
**.VIFIBN12.ShimIPC8.difName 		= "Shim15To12"
**.VIFIBN12.ShimIPC8.ipcAddress 	 	    = "2"
**.VIFIBN15.ShimIPC8.difName 		= "Shim15To13"
**.VIFIBN15.ShimIPC8.ipcAddress 	 	    = "1"
**.VIFIBN13.ShimIPC9.difName 		= "Shim15To13"
**.VIFIBN13.ShimIPC9.ipcAddress 	 	    = "2"
**.VIFIBN15.ShimIPC9.difName 		= "Shim15To20"
**.VIFIBN15.ShimIPC9.ipcAddress 	 	    = "1"
**.VIFIBN20.ShimIPC2.difName 		= "Shim15To20"
**.VIFIBN20.ShimIPC2.ipcAddress 	 	    = "2"
**.VIFIBN15.ShimIPC10.difName 		= "Shim15To2"
**.VIFIBN15.ShimIPC10.ipcAddress 	 	    = "1"
**.VIFIBN2.ShimIPC9.difName 		= "Shim15To2"
**.VIFIBN2.ShimIPC9.ipcAddress 	 	    = "2"
**.VIFIBN16.ShimIPC3.difName 		= "Shim16To8"
**.VIFIBN16.ShimIPC3.ipcAddress 	 	    = "1"
**.VIFIBN8.ShimIPC9.difName 		= "Shim16To8"
**.VIFIBN8.ShimIPC9.ipcAddress 	 	    = "2"
**.VIFIBN16.ShimIPC4.difName 		= "Shim16To9"
**.VIFIBN16.ShimIPC4.ipcAddress 	 	    = "1"
**.VIFIBN9.ShimIPC6.difName 		= "Shim16To9"
**.VIFIBN9.ShimIPC6.ipcAddress 	 	    = "2"
**.VIFIBN16.ShimIPC5.difName 		= "Shim16To10"
**.VIFIBN16.ShimIPC5.ipcAddress 	 	    = "1"
**.VIFIBN10.ShimIPC9.difName 		= "Shim16To10"
**.VIFIBN10.ShimIPC9.ipcAddress 	 	    = "2"
**.VIFIBN16.ShimIPC6.difName 		= "Shim16To14"
**.VIFIBN16.ShimIPC6.ipcAddress 	 	    = "1"
**.VIFIBN14.ShimIPC7.difName 		= "Shim16To14"
**.VIFIBN14.ShimIPC7.ipcAddress 	 	    = "2"
**.VIFIBN16.ShimIPC7.difName 		= "Shim16To19"
**.VIFIBN16.ShimIPC7.ipcAddress 	 	    = "1"
**.VIFIBN19.ShimIPC2.difName 		= "Shim16To19"
**.VIFIBN19.ShimIPC2.ipcAddress 	 	    = "2"
**.VIFIBN16.ShimIPC8.difName 		= "Shim16To23"
**.VIFIBN16.ShimIPC8.ipcAddress 	 	    = "1"
**.VIFIBN23.ShimIPC2.difName 		= "Shim16To23"
**.VIFIBN23.ShimIPC2.ipcAddress 	 	    = "2"
**.VIFIBN16.ShimIPC9.difName 		= "Shim16To27"
**.VIFIBN16.ShimIPC9.ipcAddress 	 	    = "1"
**.VIFIBN27.ShimIPC2.difName 		= "Shim16To27"
**.VIFIBN27.ShimIPC2.ipcAddress 	 	    = "2"
**.VIFIBN17.ShimIPC3.difName 		= "Shim17To2"
**.VIFIBN17.ShimIPC3.ipcAddress 	 	    = "1"
**.VIFIBN2.ShimIPC10.difName 		= "Shim17To2"
**.VIFIBN2.ShimIPC10.ipcAddress 	 	    = "2"
**.VIFIBN17.ShimIPC4.difName 		= "Shim17To8"
**.VIFIBN17.ShimIPC4.ipcAddress 	 	    = "1"
**.VIFIBN8.ShimIPC10.difName 		= "Shim17To8"
**.VIFIBN8.ShimIPC10.ipcAddress 	 	    = "2"
**.VIFIBN17.ShimIPC5.difName 		= "Shim17To9"
**.VIFIBN17.ShimIPC5.ipcAddress 	 	    = "1"
**.VIFIBN9.ShimIPC7.difName 		= "Shim17To9"
**.VIFIBN9.ShimIPC7.ipcAddress 	 	    = "2"
**.VIFIBN17.ShimIPC6.difName 		= "Shim17To11"
**.VIFIBN17.ShimIPC6.ipcAddress 	 	    = "1"
**.VIFIBN11.ShimIPC9.difName 		= "Shim17To11"
**.VIFIBN11.ShimIPC9.ipcAddress 	 	    = "2"
**.VIFIBN17.ShimIPC7.difName 		= "Shim17To12"
**.VIFIBN17.ShimIPC7.ipcAddress 	 	    = "1"
**.VIFIBN12.ShimIPC9.difName 		= "Shim17To12"
**.VIFIBN12.ShimIPC9.ipcAddress 	 	    = "2"
**.VIFIBN17.ShimIPC8.difName 		= "Shim17To13"
**.VIFIBN17.ShimIPC8.ipcAddress 	 	    = "1"
**.VIFIBN13.ShimIPC10.difName 		= "Shim17To13"
**.VIFIBN13.ShimIPC10.ipcAddress 	 	    = "2"
**.VIFIBN17.ShimIPC9.difName 		= "Shim17To14"
**.VIFIBN17.ShimIPC9.ipcAddress 	 	    = "1"
**.VIFIBN14.ShimIPC8.difName 		= "Shim17To14"
**.VIFIBN14.ShimIPC8.ipcAddress 	 	    = "2"
**.VIFIBN18.ShimIPC1.difName 		= "Shim18To7"
**.VIFIBN18.ShimIPC1.ipcAddress 	 	    = "1"
**.VIFIBN7.ShimIPC11.difName 		= "Shim18To7"
**.VIFIBN7.ShimIPC11.ipcAddress 	 	    = "2"
**.VIFIBN18.ShimIPC2.difName 		= "Shim18To8"
**.VIFIBN18.ShimIPC2.ipcAddress 	 	    = "1"
**.VIFIBN8.ShimIPC11.difName 		= "Shim18To8"
**.VIFIBN8.ShimIPC11.ipcAddress 	 	    = "2"
**.VIFIBN18.ShimIPC3.difName 		= "Shim18To10"
**.VIFIBN18.ShimIPC3.ipcAddress 	 	    = "1"
**.VIFIBN10.ShimIPC10.difName 		= "Shim18To10"
**.VIFIBN10.ShimIPC10.ipcAddress 	 	    = "2"
**.VIFIBN18.ShimIPC4.difName 		= "Shim18To11"
**.VIFIBN18.ShimIPC4.ipcAddress 	 	    = "1"
**.VIFIBN11.ShimIPC10.difName 		= "Shim18To11"
**.VIFIBN11.ShimIPC10.ipcAddress 	 	    = "2"
**.VIFIBN18.ShimIPC5.difName 		= "Shim18To12"
**.VIFIBN18.ShimIPC5.ipcAddress 	 	    = "1"
**.VIFIBN12.ShimIPC10.difName 		= "Shim18To12"
**.VIFIBN12.ShimIPC10.ipcAddress 	 	    = "2"
**.VIFIBN18.ShimIPC6.difName 		= "Shim18To16"
**.VIFIBN18.ShimIPC6.ipcAddress 	 	    = "1"
**.VIFIBN16.ShimIPC10.difName 		= "Shim18To16"
**.VIFIBN16.ShimIPC10.ipcAddress 	 	    = "2"
**.VIFIBN18.ShimIPC7.difName 		= "Shim18To19"
**.VIFIBN18.ShimIPC7.ipcAddress 	 	    = "1"
**.VIFIBN19.ShimIPC3.difName 		= "Shim18To19"
**.VIFIBN19.ShimIPC3.ipcAddress 	 	    = "2"
**.VIFIBN18.ShimIPC8.difName 		= "Shim18To21"
**.VIFIBN18.ShimIPC8.ipcAddress 	 	    = "1"
**.VIFIBN21.ShimIPC2.difName 		= "Shim18To21"
**.VIFIBN21.ShimIPC2.ipcAddress 	 	    = "2"
**.VIFIBN18.ShimIPC9.difName 		= "Shim18To9"
**.VIFIBN18.ShimIPC9.ipcAddress 	 	    = "1"
**.VIFIBN9.ShimIPC8.difName 		= "Shim18To9"
**.VIFIBN9.ShimIPC8.ipcAddress 	 	    = "2"
**.VIFIBN19.ShimIPC4.difName 		= "Shim19To8"
**.VIFIBN19.ShimIPC4.ipcAddress 	 	    = "1"
**.VIFIBN8.ShimIPC12.difName 		= "Shim19To8"
**.VIFIBN8.ShimIPC12.ipcAddress 	 	    = "2"
**.VIFIBN19.ShimIPC5.difName 		= "Shim19To9"
**.VIFIBN19.ShimIPC5.ipcAddress 	 	    = "1"
**.VIFIBN9.ShimIPC9.difName 		= "Shim19To9"
**.VIFIBN9.ShimIPC9.ipcAddress 	 	    = "2"
**.VIFIBN19.ShimIPC6.difName 		= "Shim19To23"
**.VIFIBN19.ShimIPC6.ipcAddress 	 	    = "1"
**.VIFIBN23.ShimIPC3.difName 		= "Shim19To23"
**.VIFIBN23.ShimIPC3.ipcAddress 	 	    = "2"
**.VIFIBN19.ShimIPC7.difName 		= "Shim19To24"
**.VIFIBN19.ShimIPC7.ipcAddress 	 	    = "1"
**.VIFIBN24.ShimIPC3.difName 		= "Shim19To24"
**.VIFIBN24.ShimIPC3.ipcAddress 	 	    = "2"
**.VIFIBN19.ShimIPC8.difName 		= "Shim19To40"
**.VIFIBN19.ShimIPC8.ipcAddress 	 	    = "1"
**.VIFIBN40.ShimIPC0.difName 		= "Shim19To40"
**.VIFIBN40.ShimIPC0.ipcAddress 	 	    = "2"
**.VIFIBN20.ShimIPC3.difName 		= "Shim20To2"
**.VIFIBN20.ShimIPC3.ipcAddress 	 	    = "1"
**.VIFIBN2.ShimIPC11.difName 		= "Shim20To2"
**.VIFIBN2.ShimIPC11.ipcAddress 	 	    = "2"
**.VIFIBN20.ShimIPC4.difName 		= "Shim20To7"
**.VIFIBN20.ShimIPC4.ipcAddress 	 	    = "1"
**.VIFIBN7.ShimIPC12.difName 		= "Shim20To7"
**.VIFIBN7.ShimIPC12.ipcAddress 	 	    = "2"
**.VIFIBN20.ShimIPC5.difName 		= "Shim20To11"
**.VIFIBN20.ShimIPC5.ipcAddress 	 	    = "1"
**.VIFIBN11.ShimIPC11.difName 		= "Shim20To11"
**.VIFIBN11.ShimIPC11.ipcAddress 	 	    = "2"
**.VIFIBN20.ShimIPC6.difName 		= "Shim20To21"
**.VIFIBN20.ShimIPC6.ipcAddress 	 	    = "1"
**.VIFIBN21.ShimIPC3.difName 		= "Shim20To21"
**.VIFIBN21.ShimIPC3.ipcAddress 	 	    = "2"
**.VIFIBN20.ShimIPC7.difName 		= "Shim20To22"
**.VIFIBN20.ShimIPC7.ipcAddress 	 	    = "1"
**.VIFIBN22.ShimIPC1.difName 		= "Shim20To22"
**.VIFIBN22.ShimIPC1.ipcAddress 	 	    = "2"
**.VIFIBN20.ShimIPC8.difName 		= "Shim20To24"
**.VIFIBN20.ShimIPC8.ipcAddress 	 	    = "1"
**.VIFIBN24.ShimIPC4.difName 		= "Shim20To24"
**.VIFIBN24.ShimIPC4.ipcAddress 	 	    = "2"
**.VIFIBN20.ShimIPC9.difName 		= "Shim20To26"
**.VIFIBN20.ShimIPC9.ipcAddress 	 	    = "1"
**.VIFIBN26.ShimIPC3.difName 		= "Shim20To26"
**.VIFIBN26.ShimIPC3.ipcAddress 	 	    = "2"
**.VIFIBN20.ShimIPC10.difName 		= "Shim20To28"
**.VIFIBN20.ShimIPC10.ipcAddress 	 	    = "1"
**.VIFIBN28.ShimIPC1.difName 		= "Shim20To28"
**.VIFIBN28.ShimIPC1.ipcAddress 	 	    = "2"
**.VIFIBN20.ShimIPC11.difName 		= "Shim20To36"
**.VIFIBN20.ShimIPC11.ipcAddress 	 	    = "1"
**.VIFIBN36.ShimIPC0.difName 		= "Shim20To36"
**.VIFIBN36.ShimIPC0.ipcAddress 	 	    = "2"
**.VIFIBN20.ShimIPC12.difName 		= "Shim20To42"
**.VIFIBN20.ShimIPC12.ipcAddress 	 	    = "1"
**.VIFIBN42.ShimIPC0.difName 		= "Shim20To42"
**.VIFIBN42.ShimIPC0.ipcAddress 	 	    = "2"
**.VIFIBN21.ShimIPC4.difName 		= "Shim21To28"
**.VIFIBN21.ShimIPC4.ipcAddress 	 	    = "1"
**.VIFIBN28.ShimIPC2.difName 		= "Shim21To28"
**.VIFIBN28.ShimIPC2.ipcAddress 	 	    = "2"
**.VIFIBN21.ShimIPC5.difName 		= "Shim21To30"
**.VIFIBN21.ShimIPC5.ipcAddress 	 	    = "1"
**.VIFIBN30.ShimIPC0.difName 		= "Shim21To30"
**.VIFIBN30.ShimIPC0.ipcAddress 	 	    = "2"
**.VIFIBN21.ShimIPC6.difName 		= "Shim21To33"
**.VIFIBN21.ShimIPC6.ipcAddress 	 	    = "1"
**.VIFIBN33.ShimIPC0.difName 		= "Shim21To33"
**.VIFIBN33.ShimIPC0.ipcAddress 	 	    = "2"
**.VIFIBN22.ShimIPC2.difName 		= "Shim22To10"
**.VIFIBN22.ShimIPC2.ipcAddress 	 	    = "1"
**.VIFIBN10.ShimIPC11.difName 		= "Shim22To10"
**.VIFIBN10.ShimIPC11.ipcAddress 	 	    = "2"
**.VIFIBN22.ShimIPC3.difName 		= "Shim22To11"
**.VIFIBN22.ShimIPC3.ipcAddress 	 	    = "1"
**.VIFIBN11.ShimIPC12.difName 		= "Shim22To11"
**.VIFIBN11.ShimIPC12.ipcAddress 	 	    = "2"
**.VIFIBN22.ShimIPC4.difName 		= "Shim22To16"
**.VIFIBN22.ShimIPC4.ipcAddress 	 	    = "1"
**.VIFIBN16.ShimIPC11.difName 		= "Shim22To16"
**.VIFIBN16.ShimIPC11.ipcAddress 	 	    = "2"
**.VIFIBN22.ShimIPC5.difName 		= "Shim22To21"
**.VIFIBN22.ShimIPC5.ipcAddress 	 	    = "1"
**.VIFIBN21.ShimIPC7.difName 		= "Shim22To21"
**.VIFIBN21.ShimIPC7.ipcAddress 	 	    = "2"
**.VIFIBN22.ShimIPC6.difName 		= "Shim22To23"
**.VIFIBN22.ShimIPC6.ipcAddress 	 	    = "1"
**.VIFIBN23.ShimIPC4.difName 		= "Shim22To23"
**.VIFIBN23.ShimIPC4.ipcAddress 	 	    = "2"
**.VIFIBN22.ShimIPC7.difName 		= "Shim22To24"
**.VIFIBN22.ShimIPC7.ipcAddress 	 	    = "1"
**.VIFIBN24.ShimIPC5.difName 		= "Shim22To24"
**.VIFIBN24.ShimIPC5.ipcAddress 	 	    = "2"
**.VIFIBN22.ShimIPC8.difName 		= "Shim22To25"
**.VIFIBN22.ShimIPC8.ipcAddress 	 	    = "1"
**.VIFIBN25.ShimIPC1.difName 		= "Shim22To25"
**.VIFIBN25.ShimIPC1.ipcAddress 	 	    = "2"
**.VIFIBN22.ShimIPC9.difName 		= "Shim22To29"
**.VIFIBN22.ShimIPC9.ipcAddress 	 	    = "1"
**.VIFIBN29.ShimIPC1.difName 		= "Shim22To29"
**.VIFIBN29.ShimIPC1.ipcAddress 	 	    = "2"
**.VIFIBN22.ShimIPC10.difName 		= "Shim22To30"
**.VIFIBN22.ShimIPC10.ipcAddress 	 	    = "1"
**.VIFIBN30.ShimIPC1.difName 		= "Shim22To30"
**.VIFIBN30.ShimIPC1.ipcAddress 	 	    = "2"
**.VIFIBN22.ShimIPC11.difName 		= "Shim22To36"
**.VIFIBN22.ShimIPC11.ipcAddress 	 	    = "1"
**.VIFIBN36.ShimIPC1.difName 		= "Shim22To36"
**.VIFIBN36.ShimIPC1.ipcAddress 	 	    = "2"
**.VIFIBN22.ShimIPC12.difName 		= "Shim22To2"
**.VIFIBN22.ShimIPC12.ipcAddress 	 	    = "1"
**.VIFIBN2.ShimIPC12.difName 		= "Shim22To2"
**.VIFIBN2.ShimIPC12.ipcAddress 	 	    = "2"
**.VIFIBN23.ShimIPC5.difName 		= "Shim23To21"
**.VIFIBN23.ShimIPC5.ipcAddress 	 	    = "1"
**.VIFIBN21.ShimIPC8.difName 		= "Shim23To21"
**.VIFIBN21.ShimIPC8.ipcAddress 	 	    = "2"
**.VIFIBN23.ShimIPC6.difName 		= "Shim23To28"
**.VIFIBN23.ShimIPC6.ipcAddress 	 	    = "1"
**.VIFIBN28.ShimIPC3.difName 		= "Shim23To28"
**.VIFIBN28.ShimIPC3.ipcAddress 	 	    = "2"
**.VIFIBN24.ShimIPC6.difName 		= "Shim24To23"
**.VIFIBN24.ShimIPC6.ipcAddress 	 	    = "1"
**.VIFIBN23.ShimIPC7.difName 		= "Shim24To23"
**.VIFIBN23.ShimIPC7.ipcAddress 	 	    = "2"
**.VIFIBN24.ShimIPC7.difName 		= "Shim24To26"
**.VIFIBN24.ShimIPC7.ipcAddress 	 	    = "1"
**.VIFIBN26.ShimIPC4.difName 		= "Shim24To26"
**.VIFIBN26.ShimIPC4.ipcAddress 	 	    = "2"
**.VIFIBN24.ShimIPC8.difName 		= "Shim24To27"
**.VIFIBN24.ShimIPC8.ipcAddress 	 	    = "1"
**.VIFIBN27.ShimIPC3.difName 		= "Shim24To27"
**.VIFIBN27.ShimIPC3.ipcAddress 	 	    = "2"
**.VIFIBN25.ShimIPC2.difName 		= "Shim25To23"
**.VIFIBN25.ShimIPC2.ipcAddress 	 	    = "1"
**.VIFIBN23.ShimIPC8.difName 		= "Shim25To23"
**.VIFIBN23.ShimIPC8.ipcAddress 	 	    = "2"
**.VIFIBN25.ShimIPC3.difName 		= "Shim25To24"
**.VIFIBN25.ShimIPC3.ipcAddress 	 	    = "1"
**.VIFIBN24.ShimIPC9.difName 		= "Shim25To24"
**.VIFIBN24.ShimIPC9.ipcAddress 	 	    = "2"
**.VIFIBN25.ShimIPC4.difName 		= "Shim25To26"
**.VIFIBN25.ShimIPC4.ipcAddress 	 	    = "1"
**.VIFIBN26.ShimIPC5.difName 		= "Shim25To26"
**.VIFIBN26.ShimIPC5.ipcAddress 	 	    = "2"
**.VIFIBN25.ShimIPC5.difName 		= "Shim25To27"
**.VIFIBN25.ShimIPC5.ipcAddress 	 	    = "1"
**.VIFIBN27.ShimIPC4.difName 		= "Shim25To27"
**.VIFIBN27.ShimIPC4.ipcAddress 	 	    = "2"
**.VIFIBN25.ShimIPC6.difName 		= "Shim25To34"
**.VIFIBN25.ShimIPC6.ipcAddress 	 	    = "1"
**.VIFIBN34.ShimIPC0.difName 		= "Shim25To34"
**.VIFIBN34.ShimIPC0.ipcAddress 	 	    = "2"
**.VIFIBN25.ShimIPC7.difName 		= "Shim25To36"
**.VIFIBN25.ShimIPC7.ipcAddress 	 	    = "1"
**.VIFIBN36.ShimIPC2.difName 		= "Shim25To36"
**.VIFIBN36.ShimIPC2.ipcAddress 	 	    = "2"
**.VIFIBN25.ShimIPC8.difName 		= "Shim25To37"
**.VIFIBN25.ShimIPC8.ipcAddress 	 	    = "1"
**.VIFIBN37.ShimIPC0.difName 		= "Shim25To37"
**.VIFIBN37.ShimIPC0.ipcAddress 	 	    = "2"
**.VIFIBN25.ShimIPC9.difName 		= "Shim25To39"