[General]
network = UnreliableLinks
sim-time-limit =  5min

seed-set = 55

**.h1.ipcProcess1.ipcAddress = "h1"
**.h2.ipcProcess1.ipcAddress = "h2"
**.h3.ipcProcess1.ipcAddress = "h3"
**.h4.ipcProcess1.ipcAddress = "h4"

**.h1.ipcProcess0.ipcAddress = "0"
**.h2.ipcProcess0.ipcAddress = "0"
**.h3.ipcProcess0.ipcAddress = "0"
**.h4.ipcProcess0.ipcAddress = "0"

**.r1.relayIpc.ipcAddress = "r1"
**.r2.relayIpc.ipcAddress = "r2"
**.r3.relayIpc.ipcAddress = "r3"
**.r4.relayIpc.ipcAddress = "r4"

**.r1.ipcProcess0[*].ipcAddress = "1"
**.r2.ipcProcess0[*].ipcAddress = "2"
**.r3.ipcProcess0[*].ipcAddress = "3"
**.r4.ipcProcess0[*].ipcAddress = "4"


**.h*.ipcProcess1.difName = "NET"
**.r*.relayIpc.difName = "NET"

**.h1.ipcProcess0.difName = "shim1"
**.h2.ipcProcess0.difName = "shim2"
**.h3.ipcProcess0.difName = "shim3"
**.h4.ipcProcess0.difName = "shim4"

**.r1.ipcProcess0[0].difName = "shim1"
**.r2.ipcProcess0[0].difName = "shim2"
**.r3.ipcProcess0[0].difName = "shim3"
**.r4.ipcProcess0[0].difName = "shim4"

**.r1.ipcProcess0[1].difName = "shimA"
**.r2.ipcProcess0[1].difName = "shimA"
**.r3.ipcProcess0[1].difName = "shimB"
**.r4.ipcProcess0[1].difName = "shimC"

**.r1.ipcProcess0[2].difName = "shimD"
**.r2.ipcProcess0[2].difName = "shimB"
**.r3.ipcProcess0[2].difName = "shimC"
**.r4.ipcProcess0[2].difName = "shimD"

**.flowAllocator.newFlowReqPolicyType = "MinComparer"

**.ra.qoscubesData = xmldoc("QoS.xml", "Configuration/QoSCubesSet")
**.ra.qosReqData = xmldoc("QoS.xml", "Configuration/QoSReqSet")

**.ra.preallocation = xmldoc("connections.xml", "Configuration/ConnectionSet")

**.difAllocator.configData = xmldoc("config.xml", "Configuration/DA")
**.difAllocator.directory.configData = xmldoc("config.xml", "Configuration/DA")

**.enrollment.isSelfEnrolled = true



**.h1.applicationProcess1.apName = "App1"
**.h2.applicationProcess1.apName = "App2"
**.h3.applicationProcess1.apName = "App3"
**.h4.applicationProcess1.apName = "App4"

**.apType = "APStream"

**.h*.applicationProcess1.apInst.interval = 0.5s# 0.01 OK if no "undisposed message" => if worked

**.h1.applicationProcess1.apInst.startAt = 10s
**.h1.applicationProcess1.apInst.stopAt = 110s
**.h1.applicationProcess1.apInst.dstApName = "App3"

**.h2.applicationProcess1.apInst.startAt = 10s
**.h2.applicationProcess1.apInst.stopAt = 110s
**.h2.applicationProcess1.apInst.dstApName = "App4"

**.h*.applicationProcess1.**.printAtEnd = true
**.printAtEnd = false


[Config HopsSingle1Entry]
fingerprint = "8df1-8f5a"

**.ipcProcess1.resourceAllocator.pdufgPolicyName = "HopsSingle1Entry"
**.relayIpc.resourceAllocator.pdufgPolicyName = "HopsSingle1Entry"

**.ipcProcess1.routingPolicyName = "TSimpleLS"
**.relayIpc.routingPolicyName = "TSimpleLS"

[Config HopsSingleMEntries]
fingerprint = "6e4c-8abd"

**.ipcProcess1.resourceAllocator.pdufgPolicyName = "HopsSingleMEntries"
**.relayIpc.resourceAllocator.pdufgPolicyName = "HopsSingleMEntries"

**.ipcProcess1.routingPolicyName = "TSimpleLS"
**.relayIpc.routingPolicyName = "TSimpleLS"

**.ipcProcess1.relayAndMux.ForwardingPolicyName = "MultiMiniTable"
**.relayIpc.relayAndMux.ForwardingPolicyName = "MultiMiniTable"

[Config HopsFloodMEntries]
fingerprint = "3764-633f"

**.ipcProcess1.resourceAllocator.pdufgPolicyName = "HopsSingleMEntries"
**.relayIpc.resourceAllocator.pdufgPolicyName = "HopsSingleMEntries"

**.ipcProcess1.routingPolicyName = "TSimpleLS"
**.relayIpc.routingPolicyName = "TSimpleLS"

**.ipcProcess1.relayAndMux.ForwardingPolicyName = "MultiMiniTable"
**.relayIpc.relayAndMux.ForwardingPolicyName = "FloodMiniTable"
