[General]
network = FAPolicyTest
debug-on-errors = true
sim-time-limit = 5min

#Application setup
**.hostA.applicationProcess1.apName = "SourceA"
**.hostB.applicationProcess1.apName = "DestinationB"
**.apType = "APPing"

#Static addressing
**.hostA.ipcProcess0.ipcAddress = "1"
**.hostA.ipcProcess0.difName = "Layer0"
**.hostB.ipcProcess0.ipcAddress = "2"
**.hostB.ipcProcess0.difName = "Layer0"
#QoS settings
**.hostA.ipcProcess0.resourceAllocator.ra.qoscubesData = xmldoc("config.xml", "Configuration/Host[@id='hostA']/QoSCubesSet")
**.hostB.ipcProcess0.resourceAllocator.ra.qoscubesData = xmldoc("config.xml", "Configuration/Host[@id='hostA']/QoSCubesSet")

#DIF Allocator settings
**.hostA.difAllocator.configData = xmldoc("config.xml", "Configuration/Host[@id='host']/DA")
**.hostB.difAllocator.configData = xmldoc("config.xml", "Configuration/Host[@id='host']/DA")
#Enrollment
**.hostB.**.enrollment.isSelfEnrolled = true
**.hostA.ipcProcess0.enrollment.configData = xmldoc("config.xml", "Configuration/Host[@id='hostA']/Enrollment")

#PingApp setup
**.hostA.applicationProcess1.apInst.dstApName = "SourceB"
**.hostA.applicationProcess1.apInst.startAt = 10s
**.hostA.applicationProcess1.apInst.stopAt = 20s
**.hostA.applicationProcess1.AEMonitor.**.iae.size = 1024B

#Enforcing AllocateRetry policy
[Config Ping-Default]
**.flowAllocator.allocRetryPolicyType = "LimitedRetries"

[Config Ping-NoRetry]
**.flowAllocator.allocRetryPolicyType = "NoRetry"

[Config Ping-UnlimitedRetries]
**.flowAllocator.allocRetryPolicyType = "UnlimitedRetries"


