[General]
record-eventlog = false
network = JointExperiment
sim-time-limit = 120s
seed-set = ${runnumber}
debug-on-errors = true
**.vector-recording=false

#
# Server instances addressing:
#
# Shims:
#**.Server*1.ipcProcess0.difName 			= "TS1"
#**.Server*2.ipcProcess0.difName 			= "TS2"
**.Server11.ipcProcess0[0].difName 			= "T1S1"
**.Server12.ipcProcess0[0].difName 			= "T1S2"

**.Server21.ipcProcess0[0].difName 			= "T2S1"
**.Server22.ipcProcess0[0].difName 			= "T2S2"

**.Server31.ipcProcess0[0].difName 			= "T3S1"
**.Server32.ipcProcess0[0].difName 			= "T3S2"

**.Server41.ipcProcess0[0].difName 			= "T4S1"
**.Server42.ipcProcess0[0].difName 			= "T4S2"

**.Server*.ipcProcess0[0].ipcAddress 	 	= "2"
#**.Server*.ipcProcess[0].ipcAddress 	    = "2"

# DataCenter wide DIF.
**.Server*.ipcProcess1.difName 				= "DC"
**.Server11.ipcProcess1.ipcAddress 	 		= "R1.S1"
**.Server12.ipcProcess1.ipcAddress 	 		= "R1.S2"
**.Server21.ipcProcess1.ipcAddress 	 		= "R2.S1"
**.Server22.ipcProcess1.ipcAddress 	 		= "R2.S2"
**.Server31.ipcProcess1.ipcAddress 	 		= "R3.S1"
**.Server32.ipcProcess1.ipcAddress 	 		= "R3.S2"
**.Server41.ipcProcess1.ipcAddress 	 		= "R4.S1"
**.Server42.ipcProcess1.ipcAddress 	 		= "R4.S2"

**.Exit*.ipcProcess1.difName					= "DC"
**.Exit.ipcProcess1.ipcAddress				= "Exit"
**.Exit2.ipcProcess1.ipcAddress				= "Exit2"
**.Exit3.ipcProcess1.ipcAddress				= "Exit3"
**.Exit4.ipcProcess1.ipcAddress				= "Exit4"


#
# TOR instances addressing:
#
# Shims to aggregators:
**.TOR1.ipcProcess0[0].difName 			= "A1T1"
**.TOR1.ipcProcess0[0].ipcAddress  		= "2"
**.TOR1.ipcProcess0[1].difName 			= "A2T1"
**.TOR1.ipcProcess0[1].ipcAddress  		= "2"
# Shims to aggregators:
**.TOR2.ipcProcess0[0].difName 			= "A1T2"
**.TOR2.ipcProcess0[0].ipcAddress  		= "2"
**.TOR2.ipcProcess0[1].difName 			= "A2T2"
**.TOR2.ipcProcess0[1].ipcAddress  		= "2"
# Shims to aggregators:
**.TOR3.ipcProcess0[0].difName 			= "A3T3"
**.TOR3.ipcProcess0[0].ipcAddress  		= "2"
**.TOR3.ipcProcess0[1].difName 			= "A4T3"
**.TOR3.ipcProcess0[1].ipcAddress  		= "2"
# Shims to aggregators:
**.TOR4.ipcProcess0[0].difName 			= "A3T4"
**.TOR4.ipcProcess0[0].ipcAddress  		= "2"
**.TOR4.ipcProcess0[1].difName 			= "A4T4"
**.TOR4.ipcProcess0[1].ipcAddress  		= "2"

# Shims to servers:
**.TOR1.ipcProcess0[2].difName 			= "T1S1"
**.TOR2.ipcProcess0[2].difName 			= "T2S1"
**.TOR3.ipcProcess0[2].difName 			= "T3S1"
**.TOR4.ipcProcess0[2].difName 			= "T4S1"
**.TOR*.ipcProcess0[2].ipcAddress  		= "1"

**.TOR1.ipcProcess0[3].difName 			= "T1S2"
**.TOR2.ipcProcess0[3].difName 			= "T2S2"
**.TOR3.ipcProcess0[3].difName 			= "T3S2"
**.TOR4.ipcProcess0[3].difName 			= "T4S2"
**.TOR*.ipcProcess0[3].ipcAddress  		= "1"

# DataCenter wide DIF.
**.TOR*.relayIpc.difName				= "DC"
**.TOR1.relayIpc.ipcAddress				= "R1.TOR"
**.TOR2.relayIpc.ipcAddress				= "R2.TOR"
**.TOR3.relayIpc.ipcAddress				= "R3.TOR"
**.TOR4.relayIpc.ipcAddress				= "R4.TOR"


#
# Aggregators instances addressing:
#
# Shims to TORs:
**.AS1.ipcProcess0[0].difName 				= "A1T1"
**.AS1.ipcProcess0[0].ipcAddress  			= "1"
**.AS1.ipcProcess0[1].difName 				= "A1T2"
**.AS1.ipcProcess0[1].ipcAddress  			= "1"
**.AS2.ipcProcess0[0].difName 				= "A2T1"
**.AS2.ipcProcess0[0].ipcAddress  			= "1"
**.AS2.ipcProcess0[1].difName 				= "A2T2"
**.AS2.ipcProcess0[1].ipcAddress  			= "1"
**.AS3.ipcProcess0[0].difName 				= "A3T3"
**.AS3.ipcProcess0[0].ipcAddress  			= "1"
**.AS3.ipcProcess0[1].difName 				= "A3T4"
**.AS3.ipcProcess0[1].ipcAddress  			= "1"
**.AS4.ipcProcess0[0].difName 				= "A4T3"
**.AS4.ipcProcess0[0].ipcAddress  			= "1"
**.AS4.ipcProcess0[1].difName 				= "A4T4"
**.AS4.ipcProcess0[1].ipcAddress  			= "1"

# Shims to Aggregators:
**.AS1.ipcProcess0[2].difName 				= "A1A5"
**.AS1.ipcProcess0[2].ipcAddress  			= "1"
**.AS1.ipcProcess0[3].difName 				= "A1A6"
**.AS1.ipcProcess0[3].ipcAddress  			= "1"

**.AS2.ipcProcess0[2].difName 				= "A2A6"
**.AS2.ipcProcess0[2].ipcAddress  			= "1"
**.AS2.ipcProcess0[3].difName 				= "A2A5"
**.AS2.ipcProcess0[3].ipcAddress  			= "1"

**.AS3.ipcProcess0[2].difName 				= "A3A5"
**.AS3.ipcProcess0[2].ipcAddress  			= "1"
**.AS3.ipcProcess0[3].difName 				= "A3A6"
**.AS3.ipcProcess0[3].ipcAddress  			= "1"

**.AS4.ipcProcess0[2].difName 				= "A4A6"
**.AS4.ipcProcess0[2].ipcAddress  			= "1"
**.AS4.ipcProcess0[3].difName 				= "A4A5"
**.AS4.ipcProcess0[3].ipcAddress  			= "1"

**.AS5.ipcProcess0[0].difName 				= "A1A5"
**.AS5.ipcProcess0[0].ipcAddress  			= "2"
**.AS5.ipcProcess0[1].difName 				= "A3A5"
**.AS5.ipcProcess0[1].ipcAddress  			= "2"
**.AS5.ipcProcess0[2].difName 				= "A2A5"
**.AS5.ipcProcess0[2].ipcAddress  			= "2"
**.AS5.ipcProcess0[3].difName 				= "A4A5"
**.AS5.ipcProcess0[3].ipcAddress  			= "2"
**.AS5.ipcProcess0[4].difName 				= "A5Exit"
**.AS5.ipcProcess0[4].ipcAddress  			= "1"
**.AS5.ipcProcess0[5].difName 				= "A5Exit2"
**.AS5.ipcProcess0[5].ipcAddress  			= "1"
**.AS5.ipcProcess0[6].difName 				= "A5Exit3"
**.AS5.ipcProcess0[6].ipcAddress  			= "1"
**.AS5.ipcProcess0[7].difName 				= "A5Exit4"
**.AS5.ipcProcess0[7].ipcAddress  			= "1"

**.AS6.ipcProcess0[0].difName 				= "A2A6"
**.AS6.ipcProcess0[0].ipcAddress  			= "2"
**.AS6.ipcProcess0[1].difName 				= "A4A6"
**.AS6.ipcProcess0[1].ipcAddress  			= "2"
**.AS6.ipcProcess0[2].difName 				= "A1A6"
**.AS6.ipcProcess0[2].ipcAddress  			= "2"
**.AS6.ipcProcess0[3].difName 				= "A3A6"
**.AS6.ipcProcess0[3].ipcAddress  			= "2"
**.AS6.ipcProcess0[4].difName 				= "A6Exit"
**.AS6.ipcProcess0[4].ipcAddress  			= "1"
**.AS6.ipcProcess0[5].difName 				= "A6Exit2"
**.AS6.ipcProcess0[5].ipcAddress  			= "1"
**.AS6.ipcProcess0[6].difName 				= "A6Exit3"
**.AS6.ipcProcess0[6].ipcAddress  			= "1"
**.AS6.ipcProcess0[7].difName 				= "A6Exit4"
**.AS6.ipcProcess0[7].ipcAddress  			= "1"

# Aggregators to Exit:

**.Exit.ipcProcess0[0].difName 				= "A5Exit"
**.Exit.ipcProcess0[0].ipcAddress  			= "2"
**.Exit.ipcProcess0[1].difName 				= "A6Exit"
**.Exit.ipcProcess0[1].ipcAddress  			= "2"
**.Exit2.ipcProcess0[0].difName 				= "A5Exit2"
**.Exit2.ipcProcess0[0].ipcAddress  			= "2"
**.Exit2.ipcProcess0[1].difName 				= "A6Exit2"
**.Exit2.ipcProcess0[1].ipcAddress  			= "2"
**.Exit3.ipcProcess0[0].difName 				= "A5Exit3"
**.Exit3.ipcProcess0[0].ipcAddress  			= "2"
**.Exit3.ipcProcess0[1].difName 				= "A6Exit3"
**.Exit3.ipcProcess0[1].ipcAddress  			= "2"
**.Exit4.ipcProcess0[0].difName 				= "A5Exit4"
**.Exit4.ipcProcess0[0].ipcAddress  			= "2"
**.Exit4.ipcProcess0[1].difName 				= "A6Exit4"
**.Exit4.ipcProcess0[1].ipcAddress  			= "2"



# DataCenter wide DIF.
**.AS*.relayIpc.difName					= "DC"
**.AS1.relayIpc.ipcAddress				= "AS.1"
**.AS2.relayIpc.ipcAddress				= "AS.2"
**.AS3.relayIpc.ipcAddress				= "AS.3"
**.AS4.relayIpc.ipcAddress				= "AS.4"
**.AS5.relayIpc.ipcAddress				= "AS.5"
**.AS6.relayIpc.ipcAddress				= "AS.6"

# Network DIF
**.Server*.ipcProcess2.difName          = "Net"
**.Server11.ipcProcess2.ipcAddress      = "R1.S1"
**.Server12.ipcProcess2.ipcAddress      = "R1.S2"
**.Server21.ipcProcess2.ipcAddress      = "R2.S1"
**.Server22.ipcProcess2.ipcAddress      = "R2.S2"
**.Server31.ipcProcess2.ipcAddress      = "R3.S1"
**.Server32.ipcProcess2.ipcAddress      = "R3.S2"
**.Server41.ipcProcess2.ipcAddress      = "R4.S1"
**.Server42.ipcProcess2.ipcAddress      = "R4.S2"
**.Exit*.ipcProcess2.difName				= "Net"
**.Exit.ipcProcess2.ipcAddress			= "Exit"
**.Exit2.ipcProcess2.ipcAddress			= "Exit2"
**.Exit3.ipcProcess2.ipcAddress			= "Exit3"
**.Exit4.ipcProcess2.ipcAddress			= "Exit4"

# Net DIF settings
#**.ipcProcess1.resourceAllocator.pdufgPolicyName = "StatGen"
#**.ipcProcess1.relayAndMux.ForwardingPolicyName = "Q2FwdT"
#**.ipcProcess1.routingPolicyName = "TSimpleDV"
#**.ipcProcess1.resourceAllocator.pduFwdGenerator.Q2T =  xmldoc("Q2T.xml", "Q2T")
#**.ipcProcess1.resourceAllocator.pduFwdGenerator.TData \
#	= xmldoc("FWDT.xml", "FWDT/Node[@id='"+string(ancestorIndex(3))+"']")
**ipcProcess2.resourceAllocator.pdufgPolicyName = "OFStaticGenerator"


**.efcp.maxPDUSize = 1500B
**.efcp.maxSDUSize = 1500B


#
# DIF Allocator settings
#
**.Server*.difAllocator.configData 			= xmldoc("config.xml", "Configuration/DA")
**.TOR*.difAllocator.configData 			= xmldoc("config.xml", "Configuration/DA")
**.AS*.difAllocator.configData 				= xmldoc("config.xml", "Configuration/DA")
**.Exit*.difAllocator.configData 			= xmldoc("config.xml", "Configuration/DA")

#
# Directory settings
#
**.Server*.difAllocator.directory.configData= xmldoc("config.xml", "Configuration/DA")
**.TOR*.difAllocator.directory.configData 	= xmldoc("config.xml", "Configuration/DA")
**.AS*.difAllocator.directory.configData 	= xmldoc("config.xml", "Configuration/DA")
**.Exit*.difAllocator.directory.configData 	= xmldoc("config.xml", "Configuration/DA")

#
# QoS Cube sets.
#
**.ipcProcess0[*].**.ra.qoscubesData = xmldoc("shimqoscube.xml", "QoSCubesSet")
**.ipcProcess1.**.ra.qoscubesData = xmldoc("qoscube.xml", "QoSCubesSet")
**.ipcProcess1.**.ra.qosReqData = xmldoc("qosreq.xml", "QoSReqSet")
**.relayIpc.**.ra.qoscubesData = xmldoc("qoscube.xml", "QoSCubesSet")
**.relayIpc.**.ra.qosReqData = xmldoc("qosreq.xml", "QoSReqSet")
**.ipcProcess2.**.ra.qoscubesData = xmldoc("qoscube.xml", "QoSCubesSet")
**.ipcProcess2.**.ra.qosReqData = xmldoc("qosreq.xml", "QoSReqSet")

**.ra.preallocation = xmldoc("config.xml", "Configuration/ConnectionSets/ConnectionSet[@id='all']/")



#**.AS3.**.relayAndMux.rmt.printAtEnd = true
#**.AS1.**.routingPolicy.printAtEnd = true
#**.AS1.**.relayAndMux.pduForwardingPolicy.printAtEnd = true

#**.AS5.**.routingPolicy.printAtEnd = true
#**.AS5.**.relayAndMux.pduForwardingPolicy.printAtEnd = true

#**.Server*.**.routingPolicy.printAtEnd = true
#**.Server*.**.relayAndMux.rmt.printAtEnd = true



**.enrollment.isSelfEnrolled = true


**.Server*.ipcProcess1.resourceAllocator.pdufgPolicyName = "SimpleQoSGenerator"
#**.Server1*.relayIpc.resourceAllocator.pdufgPolicyName = "SimpleQoSGenerator"
**.TOR*.relayIpc.resourceAllocator.pdufgPolicyName = "SimpleQoSGenerator"
**.AS*.relayIpc.resourceAllocator.pdufgPolicyName = "SimpleQoSGenerator"
**.Exit*.ipcProcess1.resourceAllocator.pdufgPolicyName = "SimpleQoSGenerator"

#**.Server*.ipcProcess1.relayAndMux.qMonitorPolicyName = "ModularMonitor"
#**.Server*.ipcProcess1.relayAndMux.queueMonitorPolicy.recordStats = true
#**.Server1*.relayIpc.relayAndMux.qMonitorPolicyName = "ModularMonitor"
#**.Server1*.relayIpc.relayAndMux.queueMonitorPolicy.recordStats = true
#**.TOR*.relayIpc.relayAndMux.qMonitorPolicyName = "ModularMonitor"
#**.TOR*.relayIpc.relayAndMux.queueMonitorPolicy.recordStats = true
#**.AS*.relayIpc.relayAndMux.qMonitorPolicyName = "ModularMonitor"
#**.AS*.relayIpc.relayAndMux.queueMonitorPolicy.recordStats = true
#**.Exit.ipcProcess1.relayAndMux.qMonitorPolicyName = "ModularMonitor"
#**.Exit.ipcProcess1.relayAndMux.queueMonitorPolicy.recordStats = true




**.ipcProcess0[*].**.queueAllocPolicyName = "QueuePerNFlow"
**.ipcProcess0[*].**.queueIdGenName = "IDPerNFlow"

**.ipcProcess0[*].relayAndMux.maxQPolicyName = "TailDrop"
**.ipcProcess0[*].relayAndMux.qMonitorPolicyName = "IterativeStopMonitor"
**.ipcProcess0[*].relayAndMux.schedPolicyName = "IterativeScheduling"

**.defaultThreshQLength = 5000
**.defaultMaxQLength =  5000



**.ipcProcess1.**.queueAllocPolicyName = "QueuePerNQoS"
**.ipcProcess1.**.queueIdGenName = "IDPerNQoS"
**.ipcProcess1.relayAndMux.qMonitorPolicyName = "QTAMonitor"
**.ipcProcess1.relayAndMux.schedPolicyName = "QTASch"
**.ipcProcess1.relayAndMux.queueMonitorPolicy.shapersData = xmldoc("QTA.xml", "Configuration/shapers")
**.ipcProcess1.relayAndMux.queueMonitorPolicy.muxData = xmldoc("QTA.xml", "Configuration/mux")


**.relayIpc.**.queueAllocPolicyName = "QueuePerNQoS"
**.relayIpc.**.queueIdGenName = "IDPerNQoS"
**.relayIpc.relayAndMux.qMonitorPolicyName = "QTAMonitor"
**.relayIpc.relayAndMux.schedPolicyName = "QTASch"
**.relayIpc.relayAndMux.queueMonitorPolicy.shapersData = xmldoc("QTA.xml", "Configuration/shapers")
**.relayIpc.relayAndMux.queueMonitorPolicy.muxData = xmldoc("QTA.xml", "Configuration/mux")


#**.relayIpc.relayAndMux.maxQPolicyName = "DumbMaxQ"
#**.relayIpc.relayAndMux.queueMonitorPolicy.limStats = 100

##########################################################################################################
#**.relayIpc.relayAndMux.queueMonitorPolicy.outputOutSubModule_Type = "MM_DL_Out"
#**.relayIpc.relayAndMux.queueMonitorPolicy.outputOutSubModule.data = xmldoc("modules.xml", "Configuration/DLOUT")

#**.relayIpc.relayAndMux.queueMonitorPolicy.outputDropSubModule_Type = "MM_DQ_Drop"
#**.relayIpc.relayAndMux.queueMonitorPolicy.outputDropSubModule.data = xmldoc("modules.xml", "Configuration/DQQueueDrop")



#**.Server*.ipcProcess1.relayAndMux.ForwardingPolicyName = "QoSMultipathMonitor_Simple"
**.Server*.ipcProcess1.relayAndMux.ForwardingPolicyName = "QoSMultipathMonitor_Simple"
#**.Server*.ipcProcess1.relayAndMux.pduForwardingPolicy.cleanCache_t = 0
**.Server*.ipcProcess1.relayAndMux.pduForwardingPolicy.cleanCache_t = 0
#**.Server*.ipcProcess1.relayAndMux.pduForwardingPolicy.bigFlows = false
**.Server*.ipcProcess1.relayAndMux.pduForwardingPolicy.bigFlows = false
#**.Server*.ipcProcess1.relayAndMux.pduForwardingPolicy.QoSSpliter = true
**.Server*.ipcProcess1.relayAndMux.pduForwardingPolicy.QoSSpliter = true
#**.Server*.ipcProcess1.relayAndMux.pduForwardingPolicy.Reroute = true
**.Server*.ipcProcess1.relayAndMux.pduForwardingPolicy.Reroute = true
#**.Server*.ipcProcess1.relayAndMux.pduForwardingPolicy.DropIfNoBW = true
**.Server*.ipcProcess1.relayAndMux.pduForwardingPolicy.DropIfNoBW = true
#**.Server*.ipcProcess1.relayAndMux.pduForwardingPolicy.QoS_BW = xmldoc("qosBW.xml", "QOS_BW")
**.Server*.ipcProcess1.relayAndMux.pduForwardingPolicy.QoS_BW = xmldoc("qosBW.xml", "QOS_BW")

**.TOR*.relayIpc.relayAndMux.ForwardingPolicyName = "QoSMultipathMonitor_Simple"
**.TOR*.relayIpc.relayAndMux.pduForwardingPolicy.cleanCache_t = 0
**.TOR*.relayIpc.relayAndMux.pduForwardingPolicy.bigFlows = false
**.TOR*.relayIpc.relayAndMux.pduForwardingPolicy.QoSSpliter = true
**.TOR*.relayIpc.relayAndMux.pduForwardingPolicy.Reroute = true
**.TOR*.relayIpc.relayAndMux.pduForwardingPolicy.DropIfNoBW = true
**.TOR*.relayIpc.relayAndMux.pduForwardingPolicy.QoS_BW = xmldoc("qosBW.xml", "QOS_BW")

**.AS*.relayIpc.relayAndMux.ForwardingPolicyName = "QoSMultipathMonitor_Simple"
**.AS*.relayIpc.relayAndMux.pduForwardingPolicy.cleanCache_t = 0
**.AS*.relayIpc.relayAndMux.pduForwardingPolicy.bigFlows = false
**.AS*.relayIpc.relayAndMux.pduForwardingPolicy.QoSSpliter = true
**.AS*.relayIpc.relayAndMux.pduForwardingPolicy.Reroute = true
**.AS*.relayIpc.relayAndMux.pduForwardingPolicy.DropIfNoBW = true
**.AS*.relayIpc.relayAndMux.pduForwardingPolicy.QoS_BW = xmldoc("qosBW.xml", "QOS_BW")


**.Exit*.ipcProcess1.relayAndMux.ForwardingPolicyName = "QoSMultipathMonitor_Simple"
**.Exit*.ipcProcess1.relayAndMux.pduForwardingPolicy.cleanCache_t = 0
**.Exit*.ipcProcess1.relayAndMux.pduForwardingPolicy.bigFlows = false
**.Exit*.ipcProcess1.relayAndMux.pduForwardingPolicy.QoSSpliter = true
**.Exit*.ipcProcess1.relayAndMux.pduForwardingPolicy.Reroute = true
**.Exit*.ipcProcess1.relayAndMux.pduForwardingPolicy.DropIfNoBW = true
**.Exit*.ipcProcess1.relayAndMux.pduForwardingPolicy.QoS_BW = xmldoc("qosBW.xml", "QOS_BW")

**.Server*.ipcProcess1.routingPolicyName = "TSimpleDV"
**.TOR*.relayIpc.routingPolicyName = "TSimpleDV"
**.AS*.relayIpc.routingPolicyName = "TSimpleDV"
**.Exit*.ipcProcess1.routingPolicyName = "TSimpleDV"

**.Server*.ipcProcess2.routingPolicyName = "TSimpleDV"
**.Exit*.ipcProcess2.routingPolicyName = "TSimpleDV"
#**.routingPolicyName = "TSimpleDV"

**.fullPathMonitor.QoS_BW = xmldoc("qosBW.xml", "QOS_BW")
**.fullPathMonitor.SchedulerMonFrec = 0.1
**.fullPathMonitor.ForwardingMonFrec = 0.1
**.fullPathMonitor.LinksMonFrec = 0.05
**.fullPathMonitor.SchedulerMonThres = 10
**.fullPathMonitor.QoSFactor = 0.75
**.fullPathMonitor.TotalFactor = 0.25

#**.Server*.**.printAtEnd = true
#**.Exit*.**.printAtEnd = true

**.printAtEnd = true
[Config Experiment1]

#Traffic generator settings

**.OFInj.dropProb = 0.99
**.OFInj.ini = 100
**.OFInj.fin = 120
**.Exit2.OFInj.nodes = "R4.S2" #12.5%
**.Exit2.OFInj.client_flows = 102
**.Exit2.OFInj.client_min_rate = 485.4518519 #PDU/s
**.Exit2.OFInj.client_max_rate = 485.4518519
**.Exit2.OFInj.client_min_data = 2000
**.Exit2.OFInj.client_max_data = 2000
**.Exit2.OFInj.client_qos = "B1"
**.Exit2.OFInj.client_idle_time = 2

##########################################JOINT EXPERIMENT###############################################

[Config JointExperiment]

**.OFInj.dropProb = 0.99
**.OFInj.ini = 100
**.OFInj.fin = 111


#Video on demand
**.Exit2.OFInj.nodes = "R4.S2" #12.5%
**.Exit2.OFInj.client_flows = 204
**.Exit2.OFInj.client_min_rate = 485.4518519 #PDU/s
**.Exit2.OFInj.client_max_rate = 485.4518519
**.Exit2.OFInj.client_min_data = 2000
**.Exit2.OFInj.client_max_data = 2000
**.Exit2.OFInj.client_qos = "B2"
**.Exit2.OFInj.client_idle_time = 0



**.Exit.OFInj.nodes = "R1.S1" #12.5%
**.Exit.OFInj.client_flows = 204
**.Exit.OFInj.client_min_rate = 485.4518519 #PDU/s
**.Exit.OFInj.client_max_rate = 485.4518519
**.Exit.OFInj.client_min_data = 2000
**.Exit.OFInj.client_max_data = 2000
**.Exit.OFInj.client_qos = "B2"
**.Exit.OFInj.client_idle_time = 0


#Internet Data
**.Exit3.OFInj.nodes = "R1.S2" #12.5%
**.Exit3.OFInj.client_flows = 512
**.Exit3.OFInj.client_min_rate = 97.0903704 #PDU/s
**.Exit3.OFInj.client_max_rate = 97.0903704
**.Exit3.OFInj.client_min_data = 2000
**.Exit3.OFInj.client_max_data = 2000
**.Exit3.OFInj.client_qos = "C2"
**.Exit3.OFInj.client_idle_time = 2


#File Trasfer
**.Exit4.OFInj.nodes = "R4.S1" #12.5%
**.Exit4.OFInj.client_flows = 204
**.Exit4.OFInj.client_min_rate = 485.4518519 #PDU/s
**.Exit4.OFInj.client_max_rate = 485.4518519
**.Exit4.OFInj.client_min_data = 2000
**.Exit4.OFInj.client_max_data = 2000
**.Exit4.OFInj.client_qos = "D3"
**.Exit4.OFInj.client_idle_time = 0


#VM Migration
**.Server41.OFInj.nodes = "R2.S2" #12.5%
**.Server41.OFInj.client_flows = 1024
**.Server41.OFInj.client_min_rate = 97.0903704 #PDU/s
**.Server41.OFInj.client_max_rate = 97.0903704
**.Server41.OFInj.client_min_data = 2000
**.Server41.OFInj.client_max_data = 2000
**.Server41.OFInj.client_qos = "B3"
**.Server41.OFInj.client_idle_time = 0


**.Server11.OFInj.nodes = "R3.S2" #2.5%
**.Server11.OFInj.client_flows = 614
**.Server11.OFInj.client_min_rate = 97.0903704 #PDU/s
**.Server11.OFInj.client_max_rate = 97.0903704
**.Server11.OFInj.client_min_data = 2000
**.Server11.OFInj.client_max_data = 2000
**.Server11.OFInj.client_qos = "B3"
**.Server11.OFInj.client_idle_time = 0


#Management
**.Server22.OFInj.nodes = "R3.S2" #5%
**.Server22.OFInj.client_flows = 819
**.Server22.OFInj.client_min_rate = 23.7037037 #PDU/s
**.Server22.OFInj.client_max_rate = 23.7037037
**.Server22.OFInj.client_min_data = 2000
**.Server22.OFInj.client_max_data = 2000
**.Server22.OFInj.client_qos = "MA"
**.Server22.OFInj.client_idle_time = 0


#Video Streaming
**.Server31.OFInj.nodes = "Exit" #12.5
**.Server31.OFInj.voice_flows = 204
**.Server31.OFInj.voice_min_pdu_len = 1350
**.Server31.OFInj.voice_max_pdu_len = 1350
**.Server31.OFInj.voice_interval = 0.002059937 #5Mbps
**.Server31.OFInj.voice_qos = "B1"
**.Server31.OFInj.voice_idle_time = 9
**.Server31.OFInj.voice_burst_time = 3


**.Server21.OFInj.nodes = "Exit2" #12.5%
**.Server21.OFInj.voice_flows = 204
**.Server21.OFInj.voice_min_pdu_len = 1350
**.Server21.OFInj.voice_max_pdu_len = 1350
**.Server21.OFInj.voice_interval = 0.002059937 #5Mbps
**.Server21.OFInj.voice_qos = "B1"
**.Server21.OFInj.voice_idle_time = 9
**.Server21.OFInj.voice_burst_time = 3

**.Server12.OFInj.nodes = "Exit2" #12.5%
**.Server12.OFInj.voice_flows = 102
**.Server12.OFInj.voice_min_pdu_len = 1350
**.Server12.OFInj.voice_max_pdu_len = 1350
**.Server12.OFInj.voice_interval = 0.002059937 #5Mbps
**.Server12.OFInj.voice_qos = "B1"
**.Server12.OFInj.voice_idle_time = 9
**.Server12.OFInj.voice_burst_time = 3

#Low priority signaling
**.Server32.OFInj.nodes = "R1.S2" #5
**.Server32.OFInj.voice_flows = 819
**.Server32.OFInj.voice_min_pdu_len = 1350
**.Server32.OFInj.voice_max_pdu_len = 1350
**.Server32.OFInj.voice_interval = 0.04119874 #250Kb
**.Server32.OFInj.voice_qos = "D1"
**.Server32.OFInj.voice_idle_time = 9
**.Server32.OFInj.voice_burst_time = 3

