[General]
network = SmallDC
**.pduTracing = false
**.scalar-recording = false
**.vector-recording = false

sim-time-limit = 10min 

seed-set = ${runnumber}

#DIF Allocator settings
**.difAllocator.directory.configData = xmldoc("directory.xml", "DA")

**.saveInvalidPDUs = false

#Shim-Flows allocation
**.ra.preallocation = xmldoc("connectionset.xml", "ConnectionSet")
**.flowAllocator.newFlowReqPolicyType = "MinComparer"
**.isSelfEnrolled = true

##---Backbone---

#QoS settings
**.relayIpc.**.ra.qoscubesData = xmldoc("qoscube.xml", "QoSCubesSet")
**.relayIpc.**.ra.qosReqData = xmldoc("qosreq.xml", "QoSReqSet")

**.ipcProcess[*].**.ra.qoscubesData = xmldoc("qoscube.xml", "QoSCubesSet")
**.ipcProcess[*].**.ra.qosReqData = xmldoc("qosreq.xml", "QoSReqSet")


#DC DIF
**.relayIpc.difName = "DC"

**.T_0_0.relayIpc.ipcAddress = "0.0.0"
**.T_0_1.relayIpc.ipcAddress = "0.0.1"
**.T_0_2.relayIpc.ipcAddress = "0.0.2"
**.T_1_0.relayIpc.ipcAddress = "0.1.0"
**.T_1_1.relayIpc.ipcAddress = "0.1.1"
**.T_1_2.relayIpc.ipcAddress = "0.1.2"
**.T_2_0.relayIpc.ipcAddress = "0.2.0"
**.T_2_1.relayIpc.ipcAddress = "0.2.1"
**.T_2_2.relayIpc.ipcAddress = "0.2.2"
**.T_3_0.relayIpc.ipcAddress = "0.3.0"
**.T_3_1.relayIpc.ipcAddress = "0.3.1"
**.T_3_2.relayIpc.ipcAddress = "0.3.2"

**.F_0_0.relayIpc.ipcAddress = "1.0.0"
**.F_0_1.relayIpc.ipcAddress = "1.0.1"
**.F_0_2.relayIpc.ipcAddress = "1.0.2"
**.F_1_0.relayIpc.ipcAddress = "1.1.0"
**.F_1_1.relayIpc.ipcAddress = "1.1.1"
**.F_1_2.relayIpc.ipcAddress = "1.1.2"
**.F_2_0.relayIpc.ipcAddress = "1.2.0"
**.F_2_1.relayIpc.ipcAddress = "1.2.1"
**.F_2_2.relayIpc.ipcAddress = "1.2.2"
**.F_3_0.relayIpc.ipcAddress = "1.3.0"
**.F_3_1.relayIpc.ipcAddress = "1.3.1"
**.F_3_2.relayIpc.ipcAddress = "1.3.2"

**.S_0_0.relayIpc.ipcAddress = "2.0.0"
**.S_0_1.relayIpc.ipcAddress = "2.0.1"
**.S_0_2.relayIpc.ipcAddress = "2.0.2"
**.S_0_3.relayIpc.ipcAddress = "2.0.3"
**.S_1_0.relayIpc.ipcAddress = "2.1.0"
**.S_1_1.relayIpc.ipcAddress = "2.1.1"
**.S_1_2.relayIpc.ipcAddress = "2.1.2"
**.S_1_3.relayIpc.ipcAddress = "2.1.3"
**.S_2_0.relayIpc.ipcAddress = "2.2.0"
**.S_2_1.relayIpc.ipcAddress = "2.2.1"
**.S_2_2.relayIpc.ipcAddress = "2.2.2"
**.S_2_3.relayIpc.ipcAddress = "2.2.3"

**.E_0_0.relayIpc.ipcAddress = "3.0.0"
**.E_0_1.relayIpc.ipcAddress = "3.0.1"
**.E_0_2.relayIpc.ipcAddress = "3.0.2"
**.E_1_0.relayIpc.ipcAddress = "3.1.0"
**.E_1_1.relayIpc.ipcAddress = "3.1.1"
**.E_1_2.relayIpc.ipcAddress = "3.1.2"
**.E_2_0.relayIpc.ipcAddress = "3.2.0"
**.E_2_1.relayIpc.ipcAddress = "3.2.1"
**.E_2_2.relayIpc.ipcAddress = "3.2.2"



#shim DIF

**.T_**.ipcProcess[*].ipcAddress = "0"
**.F_**.ipcProcess[*].ipcAddress = "1"
**.S_**.ipcProcess[*].ipcAddress = "2"
**.E_**.ipcProcess[*].ipcAddress = "3"

**.T_0_0.ipcProcess[0].difName = "tf0.0.0"
**.T_0_0.ipcProcess[1].difName = "tf0.0.1"
**.T_0_0.ipcProcess[2].difName = "tf0.0.2"
**.T_0_1.ipcProcess[0].difName = "tf0.1.0"
**.T_0_1.ipcProcess[1].difName = "tf0.1.1"
**.T_0_1.ipcProcess[2].difName = "tf0.1.2"
**.T_0_2.ipcProcess[0].difName = "tf0.2.0"
**.T_0_2.ipcProcess[1].difName = "tf0.2.1"
**.T_0_2.ipcProcess[2].difName = "tf0.2.2"
**.T_1_0.ipcProcess[0].difName = "tf1.0.0"
**.T_1_0.ipcProcess[1].difName = "tf1.0.1"
**.T_1_0.ipcProcess[2].difName = "tf1.0.2"
**.T_1_1.ipcProcess[0].difName = "tf1.1.0"
**.T_1_1.ipcProcess[1].difName = "tf1.1.1"
**.T_1_1.ipcProcess[2].difName = "tf1.1.2"
**.T_1_2.ipcProcess[0].difName = "tf1.2.0"
**.T_1_2.ipcProcess[1].difName = "tf1.2.1"
**.T_1_2.ipcProcess[2].difName = "tf1.2.2"
**.T_2_0.ipcProcess[0].difName = "tf2.0.0"
**.T_2_0.ipcProcess[1].difName = "tf2.0.1"
**.T_2_0.ipcProcess[2].difName = "tf2.0.2"
**.T_2_1.ipcProcess[0].difName = "tf2.1.0"
**.T_2_1.ipcProcess[1].difName = "tf2.1.1"
**.T_2_1.ipcProcess[2].difName = "tf2.1.2"
**.T_2_2.ipcProcess[0].difName = "tf2.2.0"
**.T_2_2.ipcProcess[1].difName = "tf2.2.1"
**.T_2_2.ipcProcess[2].difName = "tf2.2.2"
**.T_3_0.ipcProcess[0].difName = "tf3.0.0"
**.T_3_0.ipcProcess[1].difName = "tf3.0.1"
**.T_3_0.ipcProcess[2].difName = "tf3.0.2"
**.T_3_1.ipcProcess[0].difName = "tf3.1.0"
**.T_3_1.ipcProcess[1].difName = "tf3.1.1"
**.T_3_1.ipcProcess[2].difName = "tf3.1.2"
**.T_3_2.ipcProcess[0].difName = "tf3.2.0"
**.T_3_2.ipcProcess[1].difName = "tf3.2.1"
**.T_3_2.ipcProcess[2].difName = "tf3.2.2"


**.F_0_0.ipcProcess[0].difName = "tf0.0.0"
**.F_0_0.ipcProcess[1].difName = "tf0.1.0"
**.F_0_0.ipcProcess[2].difName = "tf0.2.0"
**.F_0_0.ipcProcess[3].difName = "fs0.0.0"
**.F_0_0.ipcProcess[4].difName = "fs0.0.1"
**.F_0_0.ipcProcess[5].difName = "fs0.0.2"
**.F_0_0.ipcProcess[6].difName = "fs0.0.3"
**.F_0_1.ipcProcess[0].difName = "tf0.0.1"
**.F_0_1.ipcProcess[1].difName = "tf0.1.1"
**.F_0_1.ipcProcess[2].difName = "tf0.2.1"
**.F_0_1.ipcProcess[3].difName = "fs0.1.0"
**.F_0_1.ipcProcess[4].difName = "fs0.1.1"
**.F_0_1.ipcProcess[5].difName = "fs0.1.2"
**.F_0_1.ipcProcess[6].difName = "fs0.1.3"
**.F_0_2.ipcProcess[0].difName = "tf0.0.2"
**.F_0_2.ipcProcess[1].difName = "tf0.1.2"
**.F_0_2.ipcProcess[2].difName = "tf0.2.2"
**.F_0_2.ipcProcess[3].difName = "fs0.2.0"
**.F_0_2.ipcProcess[4].difName = "fs0.2.1"
**.F_0_2.ipcProcess[5].difName = "fs0.2.2"
**.F_0_2.ipcProcess[6].difName = "fs0.2.3"
**.F_1_0.ipcProcess[0].difName = "tf1.0.0"
**.F_1_0.ipcProcess[1].difName = "tf1.1.0"
**.F_1_0.ipcProcess[2].difName = "tf1.2.0"
**.F_1_0.ipcProcess[3].difName = "fs1.0.0"
**.F_1_0.ipcProcess[4].difName = "fs1.0.1"
**.F_1_0.ipcProcess[5].difName = "fs1.0.2"
**.F_1_0.ipcProcess[6].difName = "fs1.0.3"
**.F_1_1.ipcProcess[0].difName = "tf1.0.1"
**.F_1_1.ipcProcess[1].difName = "tf1.1.1"
**.F_1_1.ipcProcess[2].difName = "tf1.2.1"
**.F_1_1.ipcProcess[3].difName = "fs1.1.0"
**.F_1_1.ipcProcess[4].difName = "fs1.1.1"
**.F_1_1.ipcProcess[5].difName = "fs1.1.2"
**.F_1_1.ipcProcess[6].difName = "fs1.1.3"
**.F_1_2.ipcProcess[0].difName = "tf1.0.2"
**.F_1_2.ipcProcess[1].difName = "tf1.1.2"
**.F_1_2.ipcProcess[2].difName = "tf1.2.2"
**.F_1_2.ipcProcess[3].difName = "fs1.2.0"
**.F_1_2.ipcProcess[4].difName = "fs1.2.1"
**.F_1_2.ipcProcess[5].difName = "fs1.2.2"
**.F_1_2.ipcProcess[6].difName = "fs1.2.3"
**.F_2_0.ipcProcess[0].difName = "tf2.0.0"
**.F_2_0.ipcProcess[1].difName = "tf2.1.0"
**.F_2_0.ipcProcess[2].difName = "tf2.2.0"
**.F_2_0.ipcProcess[3].difName = "fs2.0.0"
**.F_2_0.ipcProcess[4].difName = "fs2.0.1"
**.F_2_0.ipcProcess[5].difName = "fs2.0.2"
**.F_2_0.ipcProcess[6].difName = "fs2.0.3"
**.F_2_1.ipcProcess[0].difName = "tf2.0.1"
**.F_2_1.ipcProcess[1].difName = "tf2.1.1"
**.F_2_1.ipcProcess[2].difName = "tf2.2.1"
**.F_2_1.ipcProcess[3].difName = "fs2.1.0"
**.F_2_1.ipcProcess[4].difName = "fs2.1.1"
**.F_2_1.ipcProcess[5].difName = "fs2.1.2"
**.F_2_1.ipcProcess[6].difName = "fs2.1.3"
**.F_2_2.ipcProcess[0].difName = "tf2.0.2"
**.F_2_2.ipcProcess[1].difName = "tf2.1.2"
**.F_2_2.ipcProcess[2].difName = "tf2.2.2"
**.F_2_2.ipcProcess[3].difName = "fs2.2.0"
**.F_2_2.ipcProcess[4].difName = "fs2.2.1"
**.F_2_2.ipcProcess[5].difName = "fs2.2.2"
**.F_2_2.ipcProcess[6].difName = "fs2.2.3"
**.F_3_0.ipcProcess[0].difName = "tf3.0.0"
**.F_3_0.ipcProcess[1].difName = "tf3.1.0"
**.F_3_0.ipcProcess[2].difName = "tf3.2.0"
**.F_3_0.ipcProcess[3].difName = "fs3.0.0"
**.F_3_0.ipcProcess[4].difName = "fs3.0.1"
**.F_3_0.ipcProcess[5].difName = "fs3.0.2"
**.F_3_0.ipcProcess[6].difName = "fs3.0.3"
**.F_3_1.ipcProcess[0].difName = "tf3.0.1"
**.F_3_1.ipcProcess[1].difName = "tf3.1.1"
**.F_3_1.ipcProcess[2].difName = "tf3.2.1"
**.F_3_1.ipcProcess[3].difName = "fs3.1.0"
**.F_3_1.ipcProcess[4].difName = "fs3.1.1"
**.F_3_1.ipcProcess[5].difName = "fs3.1.2"
**.F_3_1.ipcProcess[6].difName = "fs3.1.3"
**.F_3_2.ipcProcess[0].difName = "tf3.0.2"
**.F_3_2.ipcProcess[1].difName = "tf3.1.2"
**.F_3_2.ipcProcess[2].difName = "tf3.2.2"
**.F_3_2.ipcProcess[3].difName = "fs3.2.0"
**.F_3_2.ipcProcess[4].difName = "fs3.2.1"
**.F_3_2.ipcProcess[5].difName = "fs3.2.2"
**.F_3_2.ipcProcess[6].difName = "fs3.2.3"

**.E_0_0.ipcProcess[0].difName = "es0.0.0"
**.E_0_0.ipcProcess[1].difName = "es0.0.1"
**.E_0_0.ipcProcess[2].difName = "es0.0.2"
**.E_0_0.ipcProcess[3].difName = "es0.0.3"
**.E_0_1.ipcProcess[0].difName = "es0.1.0"
**.E_0_1.ipcProcess[1].difName = "es0.1.1"
**.E_0_1.ipcProcess[2].difName = "es0.1.2"
**.E_0_1.ipcProcess[3].difName = "es0.1.3"
**.E_0_2.ipcProcess[0].difName = "es0.2.0"
**.E_0_2.ipcProcess[1].difName = "es0.2.1"
**.E_0_2.ipcProcess[2].difName = "es0.2.2"
**.E_0_2.ipcProcess[3].difName = "es0.2.3"
**.E_1_0.ipcProcess[0].difName = "es1.0.0"
**.E_1_0.ipcProcess[1].difName = "es1.0.1"
**.E_1_0.ipcProcess[2].difName = "es1.0.2"
**.E_1_0.ipcProcess[3].difName = "es1.0.3"
**.E_1_1.ipcProcess[0].difName = "es1.1.0"
**.E_1_1.ipcProcess[1].difName = "es1.1.1"
**.E_1_1.ipcProcess[2].difName = "es1.1.2"
**.E_1_1.ipcProcess[3].difName = "es1.1.3"
**.E_1_2.ipcProcess[0].difName = "es1.2.0"
**.E_1_2.ipcProcess[1].difName = "es1.2.1"
**.E_1_2.ipcProcess[2].difName = "es1.2.2"
**.E_1_2.ipcProcess[3].difName = "es1.2.3"
**.E_2_0.ipcProcess[0].difName = "es2.0.0"
**.E_2_0.ipcProcess[1].difName = "es2.0.1"
**.E_2_0.ipcProcess[2].difName = "es2.0.2"
**.E_2_0.ipcProcess[3].difName = "es2.0.3"
**.E_2_1.ipcProcess[0].difName = "es2.1.0"
**.E_2_1.ipcProcess[1].difName = "es2.1.1"
**.E_2_1.ipcProcess[2].difName = "es2.1.2"
**.E_2_1.ipcProcess[3].difName = "es2.1.3"
**.E_2_2.ipcProcess[0].difName = "es2.2.0"
**.E_2_2.ipcProcess[1].difName = "es2.2.1"
**.E_2_2.ipcProcess[2].difName = "es2.2.2"
**.E_2_2.ipcProcess[3].difName = "es2.2.3"

**.S_0_0.ipcProcess[0].difName = "fs0.0.0"
**.S_0_0.ipcProcess[1].difName = "fs1.0.0"
**.S_0_0.ipcProcess[2].difName = "fs2.0.0"
**.S_0_0.ipcProcess[3].difName = "fs3.0.0"
**.S_0_0.ipcProcess[4].difName = "es0.0.0"
**.S_0_0.ipcProcess[5].difName = "es1.0.0"
**.S_0_0.ipcProcess[6].difName = "es2.0.0"
**.S_0_1.ipcProcess[0].difName = "fs0.0.1"
**.S_0_1.ipcProcess[1].difName = "fs1.0.1"
**.S_0_1.ipcProcess[2].difName = "fs2.0.1"
**.S_0_1.ipcProcess[3].difName = "fs3.0.1"
**.S_0_1.ipcProcess[4].difName = "es0.0.1"
**.S_0_1.ipcProcess[5].difName = "es1.0.1"
**.S_0_1.ipcProcess[6].difName = "es2.0.1"
**.S_0_2.ipcProcess[0].difName = "fs0.0.2"
**.S_0_2.ipcProcess[1].difName = "fs1.0.2"
**.S_0_2.ipcProcess[2].difName = "fs2.0.2"
**.S_0_2.ipcProcess[3].difName = "fs3.0.2"
**.S_0_2.ipcProcess[4].difName = "es0.0.2"
**.S_0_2.ipcProcess[5].difName = "es1.0.2"
**.S_0_2.ipcProcess[6].difName = "es2.0.2"
**.S_0_3.ipcProcess[0].difName = "fs0.0.3"
**.S_0_3.ipcProcess[1].difName = "fs1.0.3"
**.S_0_3.ipcProcess[2].difName = "fs2.0.3"
**.S_0_3.ipcProcess[3].difName = "fs3.0.3"
**.S_0_3.ipcProcess[4].difName = "es0.0.3"
**.S_0_3.ipcProcess[5].difName = "es1.0.3"
**.S_0_3.ipcProcess[6].difName = "es2.0.3"
**.S_1_0.ipcProcess[0].difName = "fs0.1.0"
**.S_1_0.ipcProcess[1].difName = "fs1.1.0"
**.S_1_0.ipcProcess[2].difName = "fs2.1.0"
**.S_1_0.ipcProcess[3].difName = "fs3.1.0"
**.S_1_0.ipcProcess[4].difName = "es0.1.0"
**.S_1_0.ipcProcess[5].difName = "es1.1.0"
**.S_1_0.ipcProcess[6].difName = "es2.1.0"
**.S_1_1.ipcProcess[0].difName = "fs0.1.1"
**.S_1_1.ipcProcess[1].difName = "fs1.1.1"
**.S_1_1.ipcProcess[2].difName = "fs2.1.1"
**.S_1_1.ipcProcess[3].difName = "fs3.1.1"
**.S_1_1.ipcProcess[4].difName = "es0.1.1"
**.S_1_1.ipcProcess[5].difName = "es1.1.1"
**.S_1_1.ipcProcess[6].difName = "es2.1.1"
**.S_1_2.ipcProcess[0].difName = "fs0.1.2"
**.S_1_2.ipcProcess[1].difName = "fs1.1.2"
**.S_1_2.ipcProcess[2].difName = "fs2.1.2"
**.S_1_2.ipcProcess[3].difName = "fs3.1.2"
**.S_1_2.ipcProcess[4].difName = "es0.1.2"
**.S_1_2.ipcProcess[5].difName = "es1.1.2"
**.S_1_2.ipcProcess[6].difName = "es2.1.2"
**.S_1_3.ipcProcess[0].difName = "fs0.1.3"
**.S_1_3.ipcProcess[1].difName = "fs1.1.3"
**.S_1_3.ipcProcess[2].difName = "fs2.1.3"
**.S_1_3.ipcProcess[3].difName = "fs3.1.3"
**.S_1_3.ipcProcess[4].difName = "es0.1.3"
**.S_1_3.ipcProcess[5].difName = "es1.1.3"
**.S_1_3.ipcProcess[6].difName = "es2.1.3"
**.S_2_0.ipcProcess[0].difName = "fs0.2.0"
**.S_2_0.ipcProcess[1].difName = "fs1.2.0"
**.S_2_0.ipcProcess[2].difName = "fs2.2.0"
**.S_2_0.ipcProcess[3].difName = "fs3.2.0"
**.S_2_0.ipcProcess[4].difName = "es0.2.0"
**.S_2_0.ipcProcess[5].difName = "es1.2.0"
**.S_2_0.ipcProcess[6].difName = "es2.2.0"
**.S_2_1.ipcProcess[0].difName = "fs0.2.1"
**.S_2_1.ipcProcess[1].difName = "fs1.2.1"
**.S_2_1.ipcProcess[2].difName = "fs2.2.1"
**.S_2_1.ipcProcess[3].difName = "fs3.2.1"
**.S_2_1.ipcProcess[4].difName = "es0.2.1"
**.S_2_1.ipcProcess[5].difName = "es1.2.1"
**.S_2_1.ipcProcess[6].difName = "es2.2.1"
**.S_2_2.ipcProcess[0].difName = "fs0.2.2"
**.S_2_2.ipcProcess[1].difName = "fs1.2.2"
**.S_2_2.ipcProcess[2].difName = "fs2.2.2"
**.S_2_2.ipcProcess[3].difName = "fs3.2.2"
**.S_2_2.ipcProcess[4].difName = "es0.2.2"
**.S_2_2.ipcProcess[5].difName = "es1.2.2"
**.S_2_2.ipcProcess[6].difName = "es2.2.2"
**.S_2_3.ipcProcess[0].difName = "fs0.2.3"
**.S_2_3.ipcProcess[1].difName = "fs1.2.3"
**.S_2_3.ipcProcess[2].difName = "fs2.2.3"
**.S_2_3.ipcProcess[3].difName = "fs3.2.3"
**.S_2_3.ipcProcess[4].difName = "es0.2.3"
**.S_2_3.ipcProcess[5].difName = "es1.2.3"
**.S_2_3.ipcProcess[6].difName = "es2.2.3"



**.defaultThreshQLength = 0
**.defaultMaxQLength =  10

**.efcp.maxPDUSize = 100000B
**.efcp.maxSDUSize = 100000B


**.ipcProcess[*].**.queueAllocPolicyName = "QueuePerNFlow"
**.ipcProcess[*].**.queueIdGenName = "IDPerNFlow"

**.ipcProcess[*].relayAndMux.maxQPolicyName = "TailDrop"
**.ipcProcess[*].relayAndMux.qMonitorPolicyName = "IterativeStopMonitor"
**.ipcProcess[*].relayAndMux.schedPolicyName = "IterativeScheduling"


**.relayIpc.**.queueAllocPolicyName = "QueuePerNQoS"
**.relayIpc.**.queueIdGenName = "IDPerNQoS"

**.relayIpc.relayAndMux.maxQPolicyName = "DumbMaxQ"
**.relayIpc.relayAndMux.qMonitorPolicyName = "ModularMonitor"
**.relayIpc.relayAndMux.schedPolicyName = "DumbSch"
**.relayIpc.relayAndMux.queueMonitorPolicy.outputOutSubModule_Type = "MM_DL_Out"
**.relayIpc.relayAndMux.queueMonitorPolicy.outputOutSubModule.data = xmldoc("modules.xml", "Configuration/DLOUT")

**.relayIpc.relayAndMux.queueMonitorPolicy.outputDropSubModule_Type = "MM_DQ_Drop"
**.relayIpc.relayAndMux.queueMonitorPolicy.outputDropSubModule.data = xmldoc("modules.xml", "Configuration/DQQueueDrop")

**.infection.pods = 4 
**.infection.torXpod = 3 
**.infection.fabricXpod = 3 
**.infection.spineXfabric = 4 
**.infection.edgeSets = 3 

**.infection.qosId = "BE"

**.infection.iniTime = 100
**.infection.interTime = 1
**.infection.loop = 0
**.infection.toTors = true
**.infection.toFabric = false
**.infection.toSpines = false
**.infection.toEdges = true

**.flowListener.killCount = 0
**.flowListener.killTime = 50
**.flowListener.killTimeVar = 1


[Config SimpleTable]

#Routing settings
**.relayIpc.resourceAllocator.pdufgPolicyName = "SimpleHopMEntries"
**.relayIpc.resourceAllocator.pduFwdGenerator.infinite = 32

**.relayIpc.relayAndMux.ForwardingPolicyName = "MultiMiniTable"

**.relayIpc.routingPolicyName = "TSimpleDV"



[Config DCForwarding]

#Routing settings
**.relayIpc.resourceAllocator.pdufgPolicyName = "SimpleDCGenerator"
**.relayIpc.resourceAllocator.pduFwdGenerator.infinite = 32

**.T**.relayIpc.relayAndMux.ForwardingPolicyName = "SimpleTORForwarding"
**.F**.relayIpc.relayAndMux.ForwardingPolicyName = "SimpleFabricForwarding"
**.S**.relayIpc.relayAndMux.ForwardingPolicyName = "SimpleSpineForwarding"
**.E**.relayIpc.relayAndMux.ForwardingPolicyName = "SimpleEdgeForwarding"

**.T**.relayIpc.relayAndMux.pduForwardingPolicy.upCount = 3 
**.F**.relayIpc.relayAndMux.pduForwardingPolicy.upCount = 4 
**.F**.relayIpc.relayAndMux.pduForwardingPolicy.downCount = 3 
**.S**.relayIpc.relayAndMux.pduForwardingPolicy.upCount = 3 
**.S**.relayIpc.relayAndMux.pduForwardingPolicy.downCount = 4  
**.E**.relayIpc.relayAndMux.pduForwardingPolicy.downCount = 4 

**.relayIpc.routingPolicyName = "TSimpleDV"



[Config MDCRouting]

#Routing settings
**.relayIpc.resourceAllocator.pdufgPolicyName = "VoidDCGenerator"
**.relayIpc.resourceAllocator.pduFwdGenerator.infinite = 32

**.T**.relayIpc.routingPolicyName = "TOR_Routing"
**.F**.relayIpc.routingPolicyName = "Fabric_Routing"
**.S**.relayIpc.routingPolicyName = "Spine_Routing"
**.E**.relayIpc.routingPolicyName = "Edge_Routing"

**.T**.relayIpc.relayAndMux.ForwardingPolicyName = "SimpleTORForwarding"
**.F**.relayIpc.relayAndMux.ForwardingPolicyName = "SimpleFabricForwarding"
**.S**.relayIpc.relayAndMux.ForwardingPolicyName = "SimpleSpineForwarding"
**.E**.relayIpc.relayAndMux.ForwardingPolicyName = "SimpleEdgeForwarding"

**.T**.relayIpc.relayAndMux.pduForwardingPolicy.upCount = 3 
**.F**.relayIpc.relayAndMux.pduForwardingPolicy.upCount = 4 
**.F**.relayIpc.relayAndMux.pduForwardingPolicy.downCount = 3 
**.S**.relayIpc.relayAndMux.pduForwardingPolicy.upCount = 3 
**.S**.relayIpc.relayAndMux.pduForwardingPolicy.downCount = 4 
**.E**.relayIpc.relayAndMux.pduForwardingPolicy.downCount = 4 

**.relayIpc.routingPolicy.pods = 4 
**.relayIpc.routingPolicy.torXpod = 3 
**.relayIpc.routingPolicy.fabricXpod = 3 
**.relayIpc.routingPolicy.spineXfabric = 4 
**.relayIpc.routingPolicy.edgeSets = 3 


[Config RERouting]
#Routing settings
**.relayIpc.resourceAllocator.pdufgPolicyName = "RE_DC_Generator"

**.T**.relayIpc.relayAndMux.ForwardingPolicyName = "REFwd_ToR"
**.F**.relayIpc.relayAndMux.ForwardingPolicyName = "REFwd_Fabric"
**.S**.relayIpc.relayAndMux.ForwardingPolicyName = "REFwd_Spine"
**.E**.relayIpc.relayAndMux.ForwardingPolicyName = "REFwd_Edge"

**.T**.relayIpc.routingPolicyName = "RERt_ToR"
**.F**.relayIpc.routingPolicyName = "RERt_Fabric"
**.S**.relayIpc.routingPolicyName = "RERt_Spine"
**.E**.relayIpc.routingPolicyName = "RERt_Edge"

**.nPod = 4 
**.nTor = 3 
**.nFab = 3 
**.nSpine = 4 
**.nEdgeP = 3 

**.relayIpc.routingPolicy.starttime = 5
**.relayIpc.routingPolicy.oldAfter = 5
**.relayIpc.routingPolicy.expiresAfter = 20

**.T_0_0.relayIpc.routingPolicy.printAtEnd = true
#**.F_0_0.relayIpc.routingPolicy.printAtEnd = true
#**.S_0_0.relayIpc.routingPolicy.printAtEnd = true
**.E_0_0.relayIpc.routingPolicy.printAtEnd = true

**.T_0_0.relayIpc.relayAndMux.pduForwardingPolicy.printAtEnd = true
#**.F_0_0.relayIpc.relayAndMux.pduForwardingPolicy.printAtEnd = true
#**.S_0_0.relayIpc.relayAndMux.pduForwardingPolicy.printAtEnd = true
**.E_0_0.relayIpc.relayAndMux.pduForwardingPolicy.printAtEnd = true

**.cacheLivespan = 300

