[General]
network = SimpleRelayApps
check-signals = true
sim-time-limit = 5min
debug-on-errors = true
seed-set = ${runnumber}

#Static addressing
**.host1.ipcProcess0.ipcAddress = "1"
**.host2.ipcProcess0.ipcAddress = "2"
**.interiorRouter.ipcProcess0.ipcAddress = "3"
**.interiorRouter.ipcProcess1.ipcAddress = "4"

**.host1.ipcProcess1.ipcAddress = "11"
**.host2.ipcProcess1.ipcAddress = "22"
**.interiorRouter.relayIpc.ipcAddress = "33"

**.host1.ipcProcess0.difName = "Layer01"
**.interiorRouter.ipcProcess0.difName = "Layer01"

**.host2.ipcProcess0.difName = "Layer02"
**.interiorRouter.ipcProcess1.difName = "Layer02"

**.host*.ipcProcess1.difName = "Layer11"
**.interiorRouter.relayIpc.difName = "Layer11"

#DIF Allocator settings
**.host1.difAllocator.configData = xmldoc("config.xml", "Configuration/Host[@id='host1']/DA")
**.host2.difAllocator.configData = xmldoc("config.xml", "Configuration/Host[@id='host2']/DA")
**.interiorRouter.difAllocator.configData = xmldoc("config.xml", "Configuration/Router[@id='interiorRouter']/DA")

#QoS Cube sets
**.ra.qoscubesData = xmldoc("config.xml", "Configuration/QoSCubesSet")

#QoSReq setup
**.ra.qosReqData = xmldoc("config.xml", "Configuration/QoSReqSet")


#Specify timeout of CreateRequest message
**.fa.createRequestTimeout = 15s

[Config Voice]

**.host1.applicationProcess1.apName = "App1"
**.host2.applicationProcess1.apName = "App2"
**.applicationEntity.aeType = "AEVoice"
**.iae.aeName = "Voice"

**.host1.applicationProcess1.applicationEntity.iae.dstApName = "App2"
**.host1.applicationProcess1.applicationEntity.iae.dstAeName = "Voice"


**.host1.applicationProcess1.applicationEntity.iae.startAt = 10s
**.host1.applicationProcess1.applicationEntity.iae.stopAt = 200s
**.host1.applicationProcess1.applicationEntity.iae.sendAfter = 10s
**.host1.applicationProcess1.applicationEntity.iae.stopAfter = 100s

**.host1.applicationProcess1.applicationEntity.iae.maxPDUsize = 1400

**.host1.applicationProcess1.applicationEntity.iae.streamList = xmldoc("config.xml", "Configuration/AStreams")

**.host2.applicationProcess1.applicationEntity.iae.streamList = xmldoc("config.xml", "Configuration/AStreams")


**.host1.applicationProcess1.applicationEntity.iae.printAtEnd = true

[Config Video]

**.host1.applicationProcess1.apName = "App1"
**.host2.applicationProcess1.apName = "App2"
**.applicationEntity.aeType = "AEVideo"
**.iae.aeName = "Video"

**.host1.applicationProcess1.applicationEntity.iae.dstApName = "App2"
**.host1.applicationProcess1.applicationEntity.iae.dstAeName = "Video"


**.host1.applicationProcess1.applicationEntity.iae.startAt = 10s
**.host1.applicationProcess1.applicationEntity.iae.stopAt = 200s
**.host1.applicationProcess1.applicationEntity.iae.sendAfter = 10s
**.host1.applicationProcess1.applicationEntity.iae.stopAfter = 100s

**.host1.applicationProcess1.applicationEntity.iae.maxPDUsize = 1400

**.host1.applicationProcess1.applicationEntity.iae.streamList = xmldoc("config.xml", "Configuration/VStreams")
**.host2.applicationProcess1.applicationEntity.iae.streamList = xmldoc("config.xml", "Configuration/VStreams")


**.defaultThreshQLength = 100
**.defaultMaxQLength =  100

**.host1.applicationProcess1.applicationEntity.iae.printAtEnd = true

[Config Burst]

**.host1.applicationProcess1.apName = "App1"
**.host2.applicationProcess1.apName = "App2"
**.applicationEntity.aeType = "AEBStream"
**.iae.aeName = "Burst"

**.host1.applicationProcess1.applicationEntity.iae.dstApName = "App2"
**.host1.applicationProcess1.applicationEntity.iae.dstAeName = "Burst"


**.host1.applicationProcess1.applicationEntity.iae.startAt = 10s
**.host1.applicationProcess1.applicationEntity.iae.stopAt = 200s
**.host1.applicationProcess1.applicationEntity.iae.sendAfter = 10s
**.host1.applicationProcess1.applicationEntity.iae.stopAfter = 100s

**.host1.applicationProcess1.applicationEntity.iae.maxPDUsize = 1400

**.host1.applicationProcess1.applicationEntity.iae.streamList = xmldoc("config.xml", "Configuration/BStreams")
**.host2.applicationProcess1.applicationEntity.iae.streamList = xmldoc("config.xml", "Configuration/BStreams")


**.host1.applicationProcess1.applicationEntity.iae.printAtEnd = true

[Config Data]

**.host1.applicationProcess1.apName = "App1"
**.host2.applicationProcess1.apName = "App2"
**.applicationEntity.aeType = "AEBStream"
**.iae.aeName = "Burst"

**.host1.applicationProcess1.applicationEntity.iae.dstApName = "App2"
**.host1.applicationProcess1.applicationEntity.iae.dstAeName = "Burst"


**.host1.applicationProcess1.applicationEntity.iae.startAt = 10s
**.host1.applicationProcess1.applicationEntity.iae.stopAt = 200s
**.host1.applicationProcess1.applicationEntity.iae.sendAfter = 10s
**.host1.applicationProcess1.applicationEntity.iae.stopAfter = 100s

**.host1.applicationProcess1.applicationEntity.iae.maxPDUsize = 1400

**.host1.applicationProcess1.applicationEntity.iae.streamList = xmldoc("config.xml", "Configuration/DStreams")
**.host2.applicationProcess1.applicationEntity.iae.streamList = xmldoc("config.xml", "Configuration/DStreams")


**.host1.applicationProcess1.applicationEntity.iae.printAtEnd = true
