[General]
network = DCCongestion
check-signals = true
sim-time-limit = 20s
debug-on-errors = true
seed-set = ${runnumber}

**.host11.applicationProcess1.apName = "App11"
**.host12.applicationProcess1.apName = "App12"
**.host13.applicationProcess1.apName = "App13"
**.host14.applicationProcess1.apName = "App14"
**.host15.applicationProcess1.apName = "App15"
**.host16.applicationProcess1.apName = "App16"
**.host17.applicationProcess1.apName = "App17"
**.host18.applicationProcess1.apName = "App18"
**.host19.applicationProcess1.apName = "App19"
**.host110.applicationProcess1.apName = "App110"
**.host21.nofAP = 10
**.host21.AP[0].apName = "App21"
**.host21.AP[1].apName = "App22"
**.host21.AP[2].apName = "App23"
**.host21.AP[3].apName = "App24"
**.host21.AP[4].apName = "App25"
**.host21.AP[5].apName = "App26"
**.host21.AP[6].apName = "App27"
**.host21.AP[7].apName = "App28"
**.host21.AP[8].apName = "App29"
**.host21.AP[9].apName = "App210"

#Static addressing
**.host11.ipcProcess0.ipcAddress = "1"
**.host12.ipcProcess0.ipcAddress = "5"
**.host13.ipcProcess0.ipcAddress = "7"
**.host14.ipcProcess0.ipcAddress = "9"
**.host15.ipcProcess0.ipcAddress = "011"
**.host16.ipcProcess0.ipcAddress = "013"
**.host17.ipcProcess0.ipcAddress = "015"
**.host18.ipcProcess0.ipcAddress = "017"
**.host19.ipcProcess0.ipcAddress = "019"
**.host110.ipcProcess0.ipcAddress = "021"
**.host21.ipcProcess0.ipcAddress = "2"

**.interiorRouter.ipcProcess[0].ipcAddress = "3"
**.interiorRouter.ipcProcess[1].ipcAddress = "4"
**.interiorRouter.ipcProcess[2].ipcAddress = "6"
**.interiorRouter.ipcProcess[3].ipcAddress = "8"
**.interiorRouter.ipcProcess[4].ipcAddress = "010"
**.interiorRouter.ipcProcess[5].ipcAddress = "012"
**.interiorRouter.ipcProcess[6].ipcAddress = "014"
**.interiorRouter.ipcProcess[7].ipcAddress = "016"
**.interiorRouter.ipcProcess[8].ipcAddress = "018"
**.interiorRouter.ipcProcess[9].ipcAddress = "020"
**.interiorRouter.ipcProcess[10].ipcAddress = "022"

**.host11.ipcProcess1.ipcAddress = "11"
**.host12.ipcProcess1.ipcAddress = "44"
**.host13.ipcProcess1.ipcAddress = "55"
**.host14.ipcProcess1.ipcAddress = "66"
**.host15.ipcProcess1.ipcAddress = "77"
**.host16.ipcProcess1.ipcAddress = "88"
**.host17.ipcProcess1.ipcAddress = "99"
**.host18.ipcProcess1.ipcAddress = "110"
**.host19.ipcProcess1.ipcAddress = "111"
**.host110.ipcProcess1.ipcAddress = "112"
**.host21.ipcProcess1.ipcAddress = "22"
**.interiorRouter.relayIpc.ipcAddress = "33"

**.host11.ipcProcess0.difName = "Layer01"
**.interiorRouter.ipcProcess[0].difName = "Layer01"

**.host12.ipcProcess0.difName = "Layer03"
**.interiorRouter.ipcProcess[2].difName = "Layer03"

**.host13.ipcProcess0.difName = "Layer04"
**.interiorRouter.ipcProcess[3].difName = "Layer04"

**.host14.ipcProcess0.difName = "Layer05"
**.interiorRouter.ipcProcess[4].difName = "Layer05"

**.host15.ipcProcess0.difName = "Layer06"
**.interiorRouter.ipcProcess[5].difName = "Layer06"

**.host16.ipcProcess0.difName = "Layer07"
**.interiorRouter.ipcProcess[6].difName = "Layer07"

**.host17.ipcProcess0.difName = "Layer08"
**.interiorRouter.ipcProcess[7].difName = "Layer08"

**.host18.ipcProcess0.difName = "Layer09"
**.interiorRouter.ipcProcess[8].difName = "Layer09"

**.host19.ipcProcess0.difName = "Layer010"
**.interiorRouter.ipcProcess[9].difName = "Layer010"

**.host110.ipcProcess0.difName = "Layer011"
**.interiorRouter.ipcProcess[10].difName = "Layer011"

**.host21.ipcProcess0.difName = "Layer02"
**.interiorRouter.ipcProcess[1].difName = "Layer02"

**.host*.ipcProcess1.difName = "Layer11"
**.interiorRouter.relayIpc.difName = "Layer11"

#DIF Allocator settings
**.host11.difAllocator.configData = xmldoc("config.xml", "Configuration/Host[@id='host11']/DA")
**.host12.difAllocator.configData = xmldoc("config.xml", "Configuration/Host[@id='host12']/DA")
**.host13.difAllocator.configData = xmldoc("config.xml", "Configuration/Host[@id='host13']/DA")
**.host14.difAllocator.configData = xmldoc("config.xml", "Configuration/Host[@id='host14']/DA")
**.host15.difAllocator.configData = xmldoc("config.xml", "Configuration/Host[@id='host15']/DA")
**.host16.difAllocator.configData = xmldoc("config.xml", "Configuration/Host[@id='host16']/DA")
**.host17.difAllocator.configData = xmldoc("config.xml", "Configuration/Host[@id='host17']/DA")
**.host18.difAllocator.configData = xmldoc("config.xml", "Configuration/Host[@id='host18']/DA")
**.host19.difAllocator.configData = xmldoc("config.xml", "Configuration/Host[@id='host19']/DA")
**.host110.difAllocator.configData = xmldoc("config.xml", "Configuration/Host[@id='host110']/DA")
**.host21.difAllocator.configData = xmldoc("config.xml", "Configuration/Host[@id='host21']/DA")
**.interiorRouter.difAllocator.configData = xmldoc("config.xml", "Configuration/Router[@id='interiorRouter']/DA")

#QoS Cube sets
**.host1*.ipcProcess1.resourceAllocator.ra.qoscubesData = xmldoc("config.xml", "Configuration/QoSCubesSet3")
#**.host12.ipcProcess1.resourceAllocator.ra.qoscubesData = xmldoc("config.xml", "Configuration/QoSCubesSet3")
#**.host13.ipcProcess1.resourceAllocator.ra.qoscubesData = xmldoc("config.xml", "Configuration/QoSCubesSet3")
#**.host14.ipcProcess1.resourceAllocator.ra.qoscubesData = xmldoc("config.xml", "Configuration/QoSCubesSet3")
#**.host15.ipcProcess1.resourceAllocator.ra.qoscubesData = xmldoc("config.xml", "Configuration/QoSCubesSet3")
#**.host15.ipcProcess1.resourceAllocator.ra.qoscubesData = xmldoc("config.xml", "Configuration/QoSCubesSet3")
#**.host15.ipcProcess1.resourceAllocator.ra.qoscubesData = xmldoc("config.xml", "Configuration/QoSCubesSet3")
#**.host15.ipcProcess1.resourceAllocator.ra.qoscubesData = xmldoc("config.xml", "Configuration/QoSCubesSet3")
#**.host15.ipcProcess1.resourceAllocator.ra.qoscubesData = xmldoc("config.xml", "Configuration/QoSCubesSet3")
#**.host15.ipcProcess1.resourceAllocator.ra.qoscubesData = xmldoc("config.xml", "Configuration/QoSCubesSet3")
**.host21.ipcProcess1.resourceAllocator.ra.qoscubesData = xmldoc("config.xml", "Configuration/QoSCubesSet2")

**.host1*.ipcProcess0.resourceAllocator.ra.qoscubesData = xmldoc("config.xml", "Configuration/QoSCubesSet4")
#**.host12.ipcProcess0.resourceAllocator.ra.qoscubesData = xmldoc("config.xml", "Configuration/QoSCubesSet4")
#**.host13.ipcProcess0.resourceAllocator.ra.qoscubesData = xmldoc("config.xml", "Configuration/QoSCubesSet4")
#**.host14.ipcProcess0.resourceAllocator.ra.qoscubesData = xmldoc("config.xml", "Configuration/QoSCubesSet4")
#**.host15.ipcProcess0.resourceAllocator.ra.qoscubesData = xmldoc("config.xml", "Configuration/QoSCubesSet4")
**.host21.ipcProcess0.resourceAllocator.ra.qoscubesData = xmldoc("config.xml", "Configuration/QoSCubesSet4")
**.interiorRouter.ipcProcess[*].resourceAllocator.ra.qoscubesData = xmldoc("config.xml", "Configuration/QoSCubesSet4")
**.ra.qoscubesData = xmldoc("config.xml", "Configuration/QoSCubesSet")

#Enrollment settings
#**.interiorRouter.**.enrollment.isSelfEnrolled = true
#**.host21.ipcProcess1.enrollment.configData = xmldoc("config.xml", "Configuration/Host[@id='host21']/Enrollment")

**.host*.ipcProcess0.resourceAllocator.ra.preallocation = \
    xmldoc("config.xml", "Configuration/ConnectionSets/ConnectionSet[@id='all']/")
**.interiorRouter.ipcProcess[*].resourceAllocator.ra.preallocation = \
    xmldoc("config.xml", "Configuration/ConnectionSets/ConnectionSet[@id='all']/")

#Specify timeout of CreateRequest message
#**.fa.createRequestTimeout = 15s
#**.host1.applicationProcess1.applicationEntity.iae.forceOrder = true
#[Config CongestionPing]
#fingerprint = "5e81-cb4c"
#
##Specify AE
#**.applicationEntity.aeType = "AEPing"
#**.iae.aeName = "Ping"
#**.host1.applicationProcess1.applicationEntity.iae.size = 256B
#
##This is  config for testing "slowDown" with EFCP, RMT, RA and RIBd
##PingApp setup
#**.host1.applicationProcess1.applicationEntity.iae.dstApName = "App2"
#**.host1.applicationProcess1.applicationEntity.iae.dstAeName = "Ping"
#**.host1.applicationProcess1.applicationEntity.iae.startAt = 10s
#**.host1.applicationProcess1.applicationEntity.iae.pingAt =  60s
#**.host1.applicationProcess1.applicationEntity.iae.rate = 15
#**.host1.applicationProcess1.applicationEntity.iae.stopAt = 250s
#
#**.interiorRouter.relayIpc.relayAndMux.defaultMaxQLength = 5
#**.interiorRouter.relayIpc.relayAndMux.defaultThreshQLength = 3
#**.interiorRouter.relayIpc.relayAndMux.maxQPolicyName = "UpstreamNotifier"
#
#**.efcp.rtt = 25s
#**.host1.ipcProcess1.efcp.efcp.initialSenderCredit = 50
#**.interiorRouter.ipcProcess1.efcp.efcp.initialSenderCredit = 3
#**.interiorRouter.ipcProcess1.efcp.efcp.maxClosedWinQueLen = 4
#**.host2.ipcProcess0.efcp.efcp.rcvCredit = 3

[Config CongestionStream-1Node]
#fingerprint = "ade4-60c6"

#Specify AE as Streaming app
**.applicationEntity.aeType = "AEStream"
**.iae.aeName = "Stream"
**.host11.applicationProcess1.applicationEntity.iae.size = 1460B

#This is a configuration for testing "slowDown" with EFCP, RMT, RA and RIBd
#PingApp setup
**.host11.applicationProcess1.applicationEntity.iae.dstApName = "App21"
**.host11.applicationProcess1.applicationEntity.iae.dstAeName = "Stream"
**.host11.applicationProcess1.applicationEntity.iae.startAt = 2s
**.host11.applicationProcess1.applicationEntity.iae.beginStreamAt =  3s
**.host11.applicationProcess1.applicationEntity.iae.endStreamAt = 20s 
**.host11.applicationProcess1.applicationEntity.iae.stopAt = 20s
**.host11.applicationProcess1.applicationEntity.iae.interval = 0.0011s#0.00012s

#**.interiorRouter.relayIpc.relayAndMux.defaultMaxQLength = 1
**.interiorRouter.relayIpc.relayAndMux.defaultThreshQLength = 3
**.interiorRouter.relayIpc.relayAndMux.maxQPolicyName = "ECNMarkerLG"
 
**.interiorRouter.ipcProcess[1].relayAndMux.defaultThreshQLength = 2
**.interiorRouter.ipcProcess[1].efcp.efcp.maxClosedWinQueLen = 2
 
**.host11.ipcProcess1.efcp.efcp.maxClosedWinQueLen = 1 
#**.interiorRouter.relayIpc.relayAndMux.maxQueuePolicy.marking = true
#**.interiorRouter.relayIpc.relayAndMux.qMonitorPolicyName = "REDMonitor"

**.relayAndMux.defaultMaxQLength = 1000 

**.efcp.rtt = 0.04s
**.host21.ipcProcess0.efcp.efcp.rcvCredit = 17
**.interiorRouter.ipcProcess[1].efcp.efcp.initialSenderCredit = 17
**.host11.ipcProcess0.efcp.efcp.rcvCredit = 17
**.interiorRouter.ipcProcess[0].efcp.efcp.initialSenderCredit = 17

**.host*.ipcProcess1.efcp.efcp.initialSenderCredit = 60
**.host*.ipcProcess1.efcp.efcp.rcvCredit = 60
**.host*.ipcProcess0.efcp.efcp.initialSenderCredit = 20
**.host*.ipcProcess0.efcp.efcp.rcvCredit = 20
**.interiorRouter.ipcProcess*.efcp.efcp.rcvCredit = 20
**.interiorRouter.ipcProcess*.efcp.efcp.initialSenderCredit = 20


#**.host2.ipcProcess1.efcp.efcp.rcvrAckPolicy = "RcvrAckPolicyLG"


[Config CongestionStream-2Nodes]
#fingerprint = "ade4-60c6"

#Specify AE as Streaming app
**.applicationEntity.aeType = "AEStream"
**.iae.aeName = "Stream"
**.host12.applicationProcess1.applicationEntity.iae.size = 1460B

#This is a configuration for testing "slowDown" with EFCP, RMT, RA and RIBd
#PingApp setup
**.host12.applicationProcess1.applicationEntity.iae.dstApName = "App22"
**.host12.applicationProcess1.applicationEntity.iae.dstAeName = "Stream"
**.host12.applicationProcess1.applicationEntity.iae.startAt = 2s
**.host12.applicationProcess1.applicationEntity.iae.beginStreamAt =  3s
**.host12.applicationProcess1.applicationEntity.iae.endStreamAt = 13s 
**.host12.applicationProcess1.applicationEntity.iae.stopAt = 13s
**.host12.applicationProcess1.applicationEntity.iae.interval = 0.0011s#0.00012s

#**.interiorRouter.relayIpc.relayAndMux.defaultMaxQLength = 1
**.interiorRouter.relayIpc.relayAndMux.defaultThreshQLength = 3
**.interiorRouter.relayIpc.relayAndMux.maxQPolicyName = "ECNMarkerLG"
 
**.interiorRouter.ipcProcess[1].relayAndMux.defaultThreshQLength = 2
**.interiorRouter.ipcProcess[1].efcp.efcp.maxClosedWinQueLen = 2
 
**.host12.ipcProcess1.efcp.efcp.maxClosedWinQueLen = 1 
#**.interiorRouter.relayIpc.relayAndMux.maxQueuePolicy.marking = true
#**.interiorRouter.relayIpc.relayAndMux.qMonitorPolicyName = "REDMonitor"

**.relayAndMux.defaultMaxQLength = 1000 

**.efcp.rtt = 0.04s
**.host21.ipcProcess0.efcp.efcp.rcvCredit = 17
**.interiorRouter.ipcProcess[1].efcp.efcp.initialSenderCredit = 17
**.host12.ipcProcess0.efcp.efcp.rcvCredit = 17
**.interiorRouter.ipcProcess[0].efcp.efcp.initialSenderCredit = 17

**.host*.ipcProcess1.efcp.efcp.initialSenderCredit = 60
**.host*.ipcProcess1.efcp.efcp.rcvCredit = 60
**.host*.ipcProcess0.efcp.efcp.initialSenderCredit = 20
**.host*.ipcProcess0.efcp.efcp.rcvCredit = 20
**.interiorRouter.ipcProcess*.efcp.efcp.rcvCredit = 20
**.interiorRouter.ipcProcess*.efcp.efcp.initialSenderCredit = 20


#**.host2.ipcProcess1.efcp.efcp.rcvrAckPolicy = "RcvrAckPolicyLG"

[Config CongestionStream-2NodesT]
#fingerprint = "ade4-60c6"

#Specify AE as Streaming app
**.applicationEntity.aeType = "AEStream"
**.iae.aeName = "Stream"
**.host1*.applicationProcess1.applicationEntity.iae.size = 1460B

#This is a configuration for testing "slowDown" with EFCP, RMT, RA and RIBd
#PingApp setup
**.host11.applicationProcess1.applicationEntity.iae.dstApName = "App21"
**.host12.applicationProcess1.applicationEntity.iae.dstApName = "App22"
**.host1*.applicationProcess1.applicationEntity.iae.dstAeName = "Stream"
**.host1*.applicationProcess1.applicationEntity.iae.startAt = 2s
**.host1*.applicationProcess1.applicationEntity.iae.beginStreamAt =  3s
**.host1*.applicationProcess1.applicationEntity.iae.endStreamAt = 20s 
**.host1*.applicationProcess1.applicationEntity.iae.stopAt = 20s
**.host1*.applicationProcess1.applicationEntity.iae.interval = 0.0011s#0.00012s

#**.interiorRouter.relayIpc.relayAndMux.defaultMaxQLength = 1
**.interiorRouter.relayIpc.relayAndMux.defaultThreshQLength = 3
**.interiorRouter.relayIpc.relayAndMux.maxQPolicyName = "ECNMarkerLG"
 
**.interiorRouter.ipcProcess[1].relayAndMux.defaultThreshQLength = 2
**.interiorRouter.ipcProcess[1].efcp.efcp.maxClosedWinQueLen = 2
 
**.host1*.ipcProcess1.efcp.efcp.maxClosedWinQueLen = 1 
#**.interiorRouter.relayIpc.relayAndMux.maxQueuePolicy.marking = true
#**.interiorRouter.relayIpc.relayAndMux.qMonitorPolicyName = "REDMonitor"

**.relayAndMux.defaultMaxQLength = 1000 

**.efcp.rtt = 0.04s
**.host21.ipcProcess0.efcp.efcp.rcvCredit = 17
**.interiorRouter.ipcProcess[1].efcp.efcp.initialSenderCredit = 17
**.host11.ipcProcess0.efcp.efcp.rcvCredit = 17
**.host12.ipcProcess0.efcp.efcp.rcvCredit = 17
**.interiorRouter.ipcProcess[0].efcp.efcp.initialSenderCredit = 17
**.interiorRouter.ipcProcess[2].efcp.efcp.initialSenderCredit = 17

**.host*.ipcProcess1.efcp.efcp.initialSenderCredit = 60
**.host*.ipcProcess1.efcp.efcp.rcvCredit = 60
**.host*.ipcProcess0.efcp.efcp.initialSenderCredit = 20
**.host*.ipcProcess0.efcp.efcp.rcvCredit = 20
**.interiorRouter.ipcProcess*.efcp.efcp.rcvCredit = 20
**.interiorRouter.ipcProcess*.efcp.efcp.initialSenderCredit = 20


#**.host2.ipcProcess1.efcp.efcp.rcvrAckPolicy = "RcvrAckPolicyLG"


[Config CongestionStream-3Nodes]
#fingerprint = "ade4-60c6"

#Specify AE as Streaming app
**.applicationEntity.aeType = "AEStream"
**.iae.aeName = "Stream"
**.host13.applicationProcess1.applicationEntity.iae.size = 1460B

#This is a configuration for testing "slowDown" with EFCP, RMT, RA and RIBd
#PingApp setup
**.host13.applicationProcess1.applicationEntity.iae.dstApName = "App23"
**.host13.applicationProcess1.applicationEntity.iae.dstAeName = "Stream"
**.host13.applicationProcess1.applicationEntity.iae.startAt = 2s
**.host13.applicationProcess1.applicationEntity.iae.beginStreamAt =  3s
**.host13.applicationProcess1.applicationEntity.iae.endStreamAt = 13s 
**.host13.applicationProcess1.applicationEntity.iae.stopAt = 13s
**.host13.applicationProcess1.applicationEntity.iae.interval = 0.0011s#0.00012s

#**.interiorRouter.relayIpc.relayAndMux.defaultMaxQLength = 1
**.interiorRouter.relayIpc.relayAndMux.defaultThreshQLength = 3
**.interiorRouter.relayIpc.relayAndMux.maxQPolicyName = "ECNMarkerLG"
 
**.interiorRouter.ipcProcess[1].relayAndMux.defaultThreshQLength = 2
**.interiorRouter.ipcProcess[1].efcp.efcp.maxClosedWinQueLen = 2
 
**.host13.ipcProcess1.efcp.efcp.maxClosedWinQueLen = 1 
#**.interiorRouter.relayIpc.relayAndMux.maxQueuePolicy.marking = true
#**.interiorRouter.relayIpc.relayAndMux.qMonitorPolicyName = "REDMonitor"

**.relayAndMux.defaultMaxQLength = 1000 

**.efcp.rtt = 0.04s
**.host21.ipcProcess0.efcp.efcp.rcvCredit = 17
**.interiorRouter.ipcProcess[1].efcp.efcp.initialSenderCredit = 17
**.host13.ipcProcess0.efcp.efcp.rcvCredit = 17
**.interiorRouter.ipcProcess[0].efcp.efcp.initialSenderCredit = 17

**.host*.ipcProcess1.efcp.efcp.initialSenderCredit = 60
**.host*.ipcProcess1.efcp.efcp.rcvCredit = 60
**.host*.ipcProcess0.efcp.efcp.initialSenderCredit = 20
**.host*.ipcProcess0.efcp.efcp.rcvCredit = 20
**.interiorRouter.ipcProcess*.efcp.efcp.rcvCredit = 20
**.interiorRouter.ipcProcess*.efcp.efcp.initialSenderCredit = 20


#**.host2.ipcProcess1.efcp.efcp.rcvrAckPolicy = "RcvrAckPolicyLG"

[Config CongestionStream-3NodesT]
#fingerprint = "ade4-60c6"

#Specify AE as Streaming app
**.applicationEntity.aeType = "AEStream"
**.iae.aeName = "Stream"
**.host1*.applicationProcess1.applicationEntity.iae.size = 1460B

#This is a configuration for testing "slowDown" with EFCP, RMT, RA and RIBd
#PingApp setup
**.host11.applicationProcess1.applicationEntity.iae.dstApName = "App21"
**.host12.applicationProcess1.applicationEntity.iae.dstApName = "App22"
**.host13.applicationProcess1.applicationEntity.iae.dstApName = "App23"
**.host1*.applicationProcess1.applicationEntity.iae.dstAeName = "Stream"
**.host1*.applicationProcess1.applicationEntity.iae.startAt = 2s
**.host1*.applicationProcess1.applicationEntity.iae.beginStreamAt =  3s
**.host1*.applicationProcess1.applicationEntity.iae.endStreamAt = 10s 
**.host1*.applicationProcess1.applicationEntity.iae.stopAt = 10s
**.host1*.applicationProcess1.applicationEntity.iae.interval = 0.0011s#0.00012s

#**.interiorRouter.relayIpc.relayAndMux.defaultMaxQLength = 1
**.interiorRouter.relayIpc.relayAndMux.defaultThreshQLength = 3
**.interiorRouter.relayIpc.relayAndMux.maxQPolicyName = "ECNMarkerLG"
 
**.interiorRouter.ipcProcess[1].relayAndMux.defaultThreshQLength = 2
**.interiorRouter.ipcProcess[1].efcp.efcp.maxClosedWinQueLen = 2
 
**.host1*.ipcProcess1.efcp.efcp.maxClosedWinQueLen = 1 
#**.interiorRouter.relayIpc.relayAndMux.maxQueuePolicy.marking = true
#**.interiorRouter.relayIpc.relayAndMux.qMonitorPolicyName = "REDMonitor"

**.relayAndMux.defaultMaxQLength = 1000 

**.efcp.rtt = 0.04s
**.host21.ipcProcess0.efcp.efcp.rcvCredit = 17
**.interiorRouter.ipcProcess[1].efcp.efcp.initialSenderCredit = 17
**.host11.ipcProcess0.efcp.efcp.rcvCredit = 17
**.host12.ipcProcess0.efcp.efcp.rcvCredit = 17
**.host13.ipcProcess0.efcp.efcp.rcvCredit = 17
**.interiorRouter.ipcProcess[0].efcp.efcp.initialSenderCredit = 17
**.interiorRouter.ipcProcess[2].efcp.efcp.initialSenderCredit = 17

**.host*.ipcProcess1.efcp.efcp.initialSenderCredit = 60
**.host*.ipcProcess1.efcp.efcp.rcvCredit = 60
**.host*.ipcProcess0.efcp.efcp.initialSenderCredit = 20
**.host*.ipcProcess0.efcp.efcp.rcvCredit = 20
**.interiorRouter.ipcProcess*.efcp.efcp.rcvCredit = 20
**.interiorRouter.ipcProcess*.efcp.efcp.initialSenderCredit = 20


#**.host2.ipcProcess1.efcp.efcp.rcvrAckPolicy = "RcvrAckPolicyLG"


[Config CongestionStream-4Nodes]
#fingerprint = "ade4-60c6"

#Specify AE as Streaming app
**.applicationEntity.aeType = "AEStream"
**.iae.aeName = "Stream"
**.host14.applicationProcess1.applicationEntity.iae.size = 1460B

#This is a configuration for testing "slowDown" with EFCP, RMT, RA and RIBd
#PingApp setup
**.host14.applicationProcess1.applicationEntity.iae.dstApName = "App24"
**.host14.applicationProcess1.applicationEntity.iae.dstAeName = "Stream"
**.host14.applicationProcess1.applicationEntity.iae.startAt = 2s
**.host14.applicationProcess1.applicationEntity.iae.beginStreamAt =  3s
**.host14.applicationProcess1.applicationEntity.iae.endStreamAt = 10s 
**.host14.applicationProcess1.applicationEntity.iae.stopAt = 10s
**.host14.applicationProcess1.applicationEntity.iae.interval = 0.0011s#0.00012s

#**.interiorRouter.relayIpc.relayAndMux.defaultMaxQLength = 1
**.interiorRouter.relayIpc.relayAndMux.defaultThreshQLength = 3
**.interiorRouter.relayIpc.relayAndMux.maxQPolicyName = "ECNMarkerLG"
 
**.interiorRouter.ipcProcess[1].relayAndMux.defaultThreshQLength = 2
**.interiorRouter.ipcProcess[1].efcp.efcp.maxClosedWinQueLen = 2
 
**.host14.ipcProcess1.efcp.efcp.maxClosedWinQueLen = 1 
#**.interiorRouter.relayIpc.relayAndMux.maxQueuePolicy.marking = true
#**.interiorRouter.relayIpc.relayAndMux.qMonitorPolicyName = "REDMonitor"

**.relayAndMux.defaultMaxQLength = 1000 

**.efcp.rtt = 0.04s
**.host21.ipcProcess0.efcp.efcp.rcvCredit = 17
**.interiorRouter.ipcProcess[1].efcp.efcp.initialSenderCredit = 17
**.host14.ipcProcess0.efcp.efcp.rcvCredit = 17
**.interiorRouter.ipcProcess[0].efcp.efcp.initialSenderCredit = 17

**.host*.ipcProcess1.efcp.efcp.initialSenderCredit = 60
**.host*.ipcProcess1.efcp.efcp.rcvCredit = 60
**.host*.ipcProcess0.efcp.efcp.initialSenderCredit = 20
**.host*.ipcProcess0.efcp.efcp.rcvCredit = 20
**.interiorRouter.ipcProcess*.efcp.efcp.rcvCredit = 20
**.interiorRouter.ipcProcess*.efcp.efcp.initialSenderCredit = 20


#**.host2.ipcProcess1.efcp.efcp.rcvrAckPolicy = "RcvrAckPolicyLG"

[Config CongestionStream-4NodesT]
#fingerprint = "ade4-60c6"

#Specify AE as Streaming app
**.applicationEntity.aeType = "AEStream"
**.iae.aeName = "Stream"
**.host1*.applicationProcess1.applicationEntity.iae.size = 1460B

#This is a configuration for testing "slowDown" with EFCP, RMT, RA and RIBd
#PingApp setup
**.host11.applicationProcess1.applicationEntity.iae.dstApName = "App21"
**.host12.applicationProcess1.applicationEntity.iae.dstApName = "App22"
**.host13.applicationProcess1.applicationEntity.iae.dstApName = "App23"
**.host14.applicationProcess1.applicationEntity.iae.dstApName = "App24"
**.host1*.applicationProcess1.applicationEntity.iae.dstAeName = "Stream"
**.host1*.applicationProcess1.applicationEntity.iae.startAt = 2s
**.host1*.applicationProcess1.applicationEntity.iae.beginStreamAt =  3s
**.host1*.applicationProcess1.applicationEntity.iae.endStreamAt = 10s 
**.host1*.applicationProcess1.applicationEntity.iae.stopAt = 10s
**.host1*.applicationProcess1.applicationEntity.iae.interval = 0.0011s#0.00012s

#**.interiorRouter.relayIpc.relayAndMux.defaultMaxQLength = 1
**.interiorRouter.relayIpc.relayAndMux.defaultThreshQLength = 2
**.interiorRouter.relayIpc.relayAndMux.maxQPolicyName = "ECNMarkerLG"
 
**.interiorRouter.ipcProcess[1].relayAndMux.defaultThreshQLength = 1
**.interiorRouter.ipcProcess[1].efcp.efcp.maxClosedWinQueLen = 1
 
**.host1*.ipcProcess1.efcp.efcp.maxClosedWinQueLen = 1 
#**.interiorRouter.relayIpc.relayAndMux.maxQueuePolicy.marking = true
#**.interiorRouter.relayIpc.relayAndMux.qMonitorPolicyName = "REDMonitor"

**.relayAndMux.defaultMaxQLength = 1000 

**.efcp.rtt = 0.04s
**.host21.ipcProcess0.efcp.efcp.rcvCredit = 17
**.interiorRouter.ipcProcess[1].efcp.efcp.initialSenderCredit = 17
**.host11.ipcProcess0.efcp.efcp.rcvCredit = 17
**.host12.ipcProcess0.efcp.efcp.rcvCredit = 17
**.host13.ipcProcess0.efcp.efcp.rcvCredit = 17
**.host14.ipcProcess0.efcp.efcp.rcvCredit = 17
**.interiorRouter.ipcProcess[0].efcp.efcp.initialSenderCredit = 17
**.interiorRouter.ipcProcess[2].efcp.efcp.initialSenderCredit = 17

**.host*.ipcProcess1.efcp.efcp.initialSenderCredit = 60
**.host*.ipcProcess1.efcp.efcp.rcvCredit = 60
**.host*.ipcProcess0.efcp.efcp.initialSenderCredit = 20
**.host*.ipcProcess0.efcp.efcp.rcvCredit = 20
**.interiorRouter.ipcProcess*.efcp.efcp.rcvCredit = 20
**.interiorRouter.ipcProcess*.efcp.efcp.initialSenderCredit = 20


#**.host2.ipcProcess1.efcp.efcp.rcvrAckPolicy = "RcvrAckPolicyLG"

[Config CongestionStream-5Nodes]
#fingerprint = "ade4-60c6"

#Specify AE as Streaming app
**.applicationEntity.aeType = "AEStream"
**.iae.aeName = "Stream"
**.host15.applicationProcess1.applicationEntity.iae.size = 1460B

#This is a configuration for testing "slowDown" with EFCP, RMT, RA and RIBd
#PingApp setup
**.host15.applicationProcess1.applicationEntity.iae.dstApName = "App25"
**.host15.applicationProcess1.applicationEntity.iae.dstAeName = "Stream"
**.host15.applicationProcess1.applicationEntity.iae.startAt = 2s
**.host15.applicationProcess1.applicationEntity.iae.beginStreamAt =  3s
**.host15.applicationProcess1.applicationEntity.iae.endStreamAt = 10s 
**.host15.applicationProcess1.applicationEntity.iae.stopAt = 10s
**.host15.applicationProcess1.applicationEntity.iae.interval = 0.0011s#0.00012s

#**.interiorRouter.relayIpc.relayAndMux.defaultMaxQLength = 1
**.interiorRouter.relayIpc.relayAndMux.defaultThreshQLength = 3
**.interiorRouter.relayIpc.relayAndMux.maxQPolicyName = "ECNMarkerLG"
 
**.interiorRouter.ipcProcess[1].relayAndMux.defaultThreshQLength = 2
**.interiorRouter.ipcProcess[1].efcp.efcp.maxClosedWinQueLen = 2
 
**.host15.ipcProcess1.efcp.efcp.maxClosedWinQueLen = 1 
#**.interiorRouter.relayIpc.relayAndMux.maxQueuePolicy.marking = true
#**.interiorRouter.relayIpc.relayAndMux.qMonitorPolicyName = "REDMonitor"

**.relayAndMux.defaultMaxQLength = 1000 

**.efcp.rtt = 0.04s
**.host21.ipcProcess0.efcp.efcp.rcvCredit = 17
**.interiorRouter.ipcProcess[1].efcp.efcp.initialSenderCredit = 17
**.host15.ipcProcess0.efcp.efcp.rcvCredit = 17
**.interiorRouter.ipcProcess[0].efcp.efcp.initialSenderCredit = 17

**.host*.ipcProcess1.efcp.efcp.initialSenderCredit = 60
**.host*.ipcProcess1.efcp.efcp.rcvCredit = 60
**.host*.ipcProcess0.efcp.efcp.initialSenderCredit = 20
**.host*.ipcProcess0.efcp.efcp.rcvCredit = 20
**.interiorRouter.ipcProcess*.efcp.efcp.rcvCredit = 20
**.interiorRouter.ipcProcess*.efcp.efcp.initialSenderCredit = 20


#**.host2.ipcProcess1.efcp.efcp.rcvrAckPolicy = "RcvrAckPolicyLG"

[Config CongestionStream-5NodesT]
#fingerprint = "ade4-60c6"

#Specify AE as Streaming app
**.applicationEntity.aeType = "AEStream"
**.iae.aeName = "Stream"
**.host1*.applicationProcess1.applicationEntity.iae.size = 1460B

#This is a configuration for testing "slowDown" with EFCP, RMT, RA and RIBd
#PingApp setup
**.host11.applicationProcess1.applicationEntity.iae.dstApName = "App21"
**.host12.applicationProcess1.applicationEntity.iae.dstApName = "App22"
**.host13.applicationProcess1.applicationEntity.iae.dstApName = "App23"
**.host14.applicationProcess1.applicationEntity.iae.dstApName = "App24"
**.host15.applicationProcess1.applicationEntity.iae.dstApName = "App25"
**.host1*.applicationProcess1.applicationEntity.iae.dstAeName = "Stream"
**.host1*.applicationProcess1.applicationEntity.iae.startAt = 2s
**.host1*.applicationProcess1.applicationEntity.iae.beginStreamAt =  3s
**.host1*.applicationProcess1.applicationEntity.iae.endStreamAt = 20s 
**.host1*.applicationProcess1.applicationEntity.iae.stopAt = 20s
**.host1*.applicationProcess1.applicationEntity.iae.interval = 0.0019s#0.00012s

#**.interiorRouter.relayIpc.relayAndMux.defaultMaxQLength = 1
**.interiorRouter.relayIpc.relayAndMux.defaultThreshQLength = 2
**.interiorRouter.relayIpc.relayAndMux.maxQPolicyName = "ECNMarkerLG"
 
**.interiorRouter.ipcProcess[1].relayAndMux.defaultThreshQLength = 1
**.interiorRouter.ipcProcess[1].efcp.efcp.maxClosedWinQueLen = 1
 
**.host1*.ipcProcess1.efcp.efcp.maxClosedWinQueLen = 1 
#**.interiorRouter.relayIpc.relayAndMux.maxQueuePolicy.marking = true
#**.interiorRouter.relayIpc.relayAndMux.qMonitorPolicyName = "REDMonitor"

**.relayAndMux.defaultMaxQLength = 1000 

**.efcp.rtt = 0.04s
**.host21.ipcProcess0.efcp.efcp.rcvCredit = 17
**.interiorRouter.ipcProcess[1].efcp.efcp.initialSenderCredit = 17
**.host11.ipcProcess0.efcp.efcp.rcvCredit = 17
**.host12.ipcProcess0.efcp.efcp.rcvCredit = 17
**.host13.ipcProcess0.efcp.efcp.rcvCredit = 17
**.host14.ipcProcess0.efcp.efcp.rcvCredit = 17
**.host15.ipcProcess0.efcp.efcp.rcvCredit = 17
**.interiorRouter.ipcProcess[0].efcp.efcp.initialSenderCredit = 17
**.interiorRouter.ipcProcess[2].efcp.efcp.initialSenderCredit = 17

**.host*.ipcProcess1.efcp.efcp.initialSenderCredit = 60
**.host*.ipcProcess1.efcp.efcp.rcvCredit = 60
**.host*.ipcProcess0.efcp.efcp.initialSenderCredit = 20
**.host*.ipcProcess0.efcp.efcp.rcvCredit = 20
**.interiorRouter.ipcProcess*.efcp.efcp.rcvCredit = 20
**.interiorRouter.ipcProcess*.efcp.efcp.initialSenderCredit = 20


#**.host2.ipcProcess1.efcp.efcp.rcvrAckPolicy = "RcvrAckPolicyLG"

[Config CongestionStream-10NodesT]
#fingerprint = "ade4-60c6"

#Specify AE as Streaming app
**.applicationEntity.aeType = "AEStream"
**.iae.aeName = "Stream"
**.host1*.applicationProcess1.applicationEntity.iae.size = 1460B

#This is a configuration for testing "slowDown" with EFCP, RMT, RA and RIBd
#PingApp setup
**.host11.applicationProcess1.applicationEntity.iae.dstApName = "App21"
**.host12.applicationProcess1.applicationEntity.iae.dstApName = "App22"
**.host13.applicationProcess1.applicationEntity.iae.dstApName = "App23"
**.host14.applicationProcess1.applicationEntity.iae.dstApName = "App24"
**.host15.applicationProcess1.applicationEntity.iae.dstApName = "App25"
**.host16.applicationProcess1.applicationEntity.iae.dstApName = "App26"
**.host17.applicationProcess1.applicationEntity.iae.dstApName = "App27"
**.host18.applicationProcess1.applicationEntity.iae.dstApName = "App28"
**.host19.applicationProcess1.applicationEntity.iae.dstApName = "App29"
**.host110.applicationProcess1.applicationEntity.iae.dstApName = "App210"
**.host1*.applicationProcess1.applicationEntity.iae.dstAeName = "Stream"
**.host1*.applicationProcess1.applicationEntity.iae.startAt = 2s
**.host1*.applicationProcess1.applicationEntity.iae.beginStreamAt =  3s
**.host1*.applicationProcess1.applicationEntity.iae.endStreamAt = 20s 
**.host1*.applicationProcess1.applicationEntity.iae.stopAt = 20s
**.host1*.applicationProcess1.applicationEntity.iae.interval = 0.0011s#0.00012s

#**.interiorRouter.relayIpc.relayAndMux.defaultMaxQLength = 1
**.interiorRouter.relayIpc.relayAndMux.defaultThreshQLength = 2