#--gaixas1 : Not mine, seems to work, maintain

[General]
network = DCCongestion
check-signals = true
sim-time-limit = 20s
debug-on-errors = true
seed-set = ${runnumber}

**.host11.applicationProcess1.apName = "App11"
**.host12.applicationProcess1.apName = "App12"
**.host13.applicationProcess1.apName = "App13"
**.host14.applicationProcess1.apName = "App14"
**.host15.applicationProcess1.apName = "App15"
**.host16.applicationProcess1.apName = "App16"
**.host17.applicationProcess1.apName = "App17"
**.host18.applicationProcess1.apName = "App18"
**.host19.applicationProcess1.apName = "App19"
**.host110.applicationProcess1.apName = "App110"
**.host111.applicationProcess1.apName = "App111"
**.host112.applicationProcess1.apName = "App112"
**.host113.applicationProcess1.apName = "App113"
**.host114.applicationProcess1.apName = "App114"
**.host115.applicationProcess1.apName = "App115"
**.host116.applicationProcess1.apName = "App116"
**.host117.applicationProcess1.apName = "App117"
**.host118.applicationProcess1.apName = "App118"
**.host119.applicationProcess1.apName = "App119"
**.host120.applicationProcess1.apName = "App120"
**.host21.nofAP = 20
**.host21.AP[0].apName = "App21"
**.host21.AP[1].apName = "App22"
**.host21.AP[2].apName = "App23"
**.host21.AP[3].apName = "App24"
**.host21.AP[4].apName = "App25"
**.host21.AP[5].apName = "App26"
**.host21.AP[6].apName = "App27"
**.host21.AP[7].apName = "App28"
**.host21.AP[8].apName = "App29"
**.host21.AP[9].apName = "App210"
**.host21.AP[10].apName = "App211"
**.host21.AP[11].apName = "App212"
**.host21.AP[12].apName = "App213"
**.host21.AP[13].apName = "App214"
**.host21.AP[14].apName = "App215"
**.host21.AP[15].apName = "App216"
**.host21.AP[16].apName = "App217"
**.host21.AP[17].apName = "App218"
**.host21.AP[18].apName = "App219"
**.host21.AP[19].apName = "App220"

#Static addressing
**.host11.ipcProcess0.ipcAddress = "1"
**.host12.ipcProcess0.ipcAddress = "5"
**.host13.ipcProcess0.ipcAddress = "7"
**.host14.ipcProcess0.ipcAddress = "9"
**.host15.ipcProcess0.ipcAddress = "011"
**.host16.ipcProcess0.ipcAddress = "013"
**.host17.ipcProcess0.ipcAddress = "015"
**.host18.ipcProcess0.ipcAddress = "017"
**.host19.ipcProcess0.ipcAddress = "019"
**.host110.ipcProcess0.ipcAddress = "021"
**.host111.ipcProcess0.ipcAddress = "023"
**.host112.ipcProcess0.ipcAddress = "025"
**.host113.ipcProcess0.ipcAddress = "027"
**.host114.ipcProcess0.ipcAddress = "029"
**.host115.ipcProcess0.ipcAddress = "031"
**.host116.ipcProcess0.ipcAddress = "033"
**.host117.ipcProcess0.ipcAddress = "035"
**.host118.ipcProcess0.ipcAddress = "037"
**.host119.ipcProcess0.ipcAddress = "039"
**.host120.ipcProcess0.ipcAddress = "041"
**.host21.ipcProcess0.ipcAddress = "2"

**.interiorRouter.ipcProcess0[0].ipcAddress = "3"
**.interiorRouter.ipcProcess0[1].ipcAddress = "4"
**.interiorRouter.ipcProcess0[2].ipcAddress = "6"
**.interiorRouter.ipcProcess0[3].ipcAddress = "8"
**.interiorRouter.ipcProcess0[4].ipcAddress = "010"
**.interiorRouter.ipcProcess0[5].ipcAddress = "012"
**.interiorRouter.ipcProcess0[6].ipcAddress = "014"
**.interiorRouter.ipcProcess0[7].ipcAddress = "016"
**.interiorRouter.ipcProcess0[8].ipcAddress = "018"
**.interiorRouter.ipcProcess0[9].ipcAddress = "020"
**.interiorRouter.ipcProcess0[10].ipcAddress = "022"
**.interiorRouter.ipcProcess0[11].ipcAddress = "024"
**.interiorRouter.ipcProcess0[12].ipcAddress = "026"
**.interiorRouter.ipcProcess0[13].ipcAddress = "028"
**.interiorRouter.ipcProcess0[14].ipcAddress = "030"
**.interiorRouter.ipcProcess0[15].ipcAddress = "032"
**.interiorRouter.ipcProcess0[16].ipcAddress = "034"
**.interiorRouter.ipcProcess0[17].ipcAddress = "036"
**.interiorRouter.ipcProcess0[18].ipcAddress = "038"
**.interiorRouter.ipcProcess0[19].ipcAddress = "040"
**.interiorRouter.ipcProcess0[20].ipcAddress = "042"

**.host11.ipcProcess1.ipcAddress = "11"
**.host12.ipcProcess1.ipcAddress = "44"
**.host13.ipcProcess1.ipcAddress = "55"
**.host14.ipcProcess1.ipcAddress = "66"
**.host15.ipcProcess1.ipcAddress = "77"
**.host16.ipcProcess1.ipcAddress = "88"
**.host17.ipcProcess1.ipcAddress = "99"
**.host18.ipcProcess1.ipcAddress = "110"
**.host19.ipcProcess1.ipcAddress = "111"
**.host110.ipcProcess1.ipcAddress = "112"
**.host111.ipcProcess1.ipcAddress = "113"
**.host112.ipcProcess1.ipcAddress = "114"
**.host113.ipcProcess1.ipcAddress = "115"
**.host114.ipcProcess1.ipcAddress = "116"
**.host115.ipcProcess1.ipcAddress = "117"
**.host116.ipcProcess1.ipcAddress = "118"
**.host117.ipcProcess1.ipcAddress = "119"
**.host118.ipcProcess1.ipcAddress = "120"
**.host119.ipcProcess1.ipcAddress = "121"
**.host120.ipcProcess1.ipcAddress = "122"
**.host21.ipcProcess1.ipcAddress = "22"
**.interiorRouter.relayIpc.ipcAddress = "33"

**.host11.ipcProcess0.difName = "Layer01"
**.interiorRouter.ipcProcess0[0].difName = "Layer01"

**.host12.ipcProcess0.difName = "Layer03"
**.interiorRouter.ipcProcess0[2].difName = "Layer03"

**.host13.ipcProcess0.difName = "Layer04"
**.interiorRouter.ipcProcess0[3].difName = "Layer04"

**.host14.ipcProcess0.difName = "Layer05"
**.interiorRouter.ipcProcess0[4].difName = "Layer05"

**.host15.ipcProcess0.difName = "Layer06"
**.interiorRouter.ipcProcess0[5].difName = "Layer06"

**.host16.ipcProcess0.difName = "Layer07"
**.interiorRouter.ipcProcess0[6].difName = "Layer07"

**.host17.ipcProcess0.difName = "Layer08"
**.interiorRouter.ipcProcess0[7].difName = "Layer08"

**.host18.ipcProcess0.difName = "Layer09"
**.interiorRouter.ipcProcess0[8].difName = "Layer09"

**.host19.ipcProcess0.difName = "Layer010"
**.interiorRouter.ipcProcess0[9].difName = "Layer010"

**.host110.ipcProcess0.difName = "Layer011"
**.interiorRouter.ipcProcess0[10].difName = "Layer011"

**.host111.ipcProcess0.difName = "Layer012"
**.interiorRouter.ipcProcess0[11].difName = "Layer012"

**.host112.ipcProcess0.difName = "Layer013"
**.interiorRouter.ipcProcess0[12].difName = "Layer013"

**.host113.ipcProcess0.difName = "Layer014"
**.interiorRouter.ipcProcess0[13].difName = "Layer014"

**.host114.ipcProcess0.difName = "Layer015"
**.interiorRouter.ipcProcess0[14].difName = "Layer015"

**.host115.ipcProcess0.difName = "Layer016"
**.interiorRouter.ipcProcess0[15].difName = "Layer016"

**.host116.ipcProcess0.difName = "Layer017"
**.interiorRouter.ipcProcess0[16].difName = "Layer017"

**.host117.ipcProcess0.difName = "Layer018"
**.interiorRouter.ipcProcess0[17].difName = "Layer018"

**.host118.ipcProcess0.difName = "Layer019"
**.interiorRouter.ipcProcess0[18].difName = "Layer019"

**.host119.ipcProcess0.difName = "Layer020"
**.interiorRouter.ipcProcess0[19].difName = "Layer020"

**.host120.ipcProcess0.difName = "Layer021"
**.interiorRouter.ipcProcess0[20].difName = "Layer021"

**.host21.ipcProcess0.difName = "Layer02"
**.interiorRouter.ipcProcess0[1].difName = "Layer02"

**.host*.ipcProcess1.difName = "Layer11"
**.interiorRouter.relayIpc.difName = "Layer11"

#DIF Allocator settings
**.host11.difAllocator.configData = xmldoc("config.xml", "Configuration/Host[@id='host11']/DA")
**.host12.difAllocator.configData = xmldoc("config.xml", "Configuration/Host[@id='host11']/DA")
**.host13.difAllocator.configData = xmldoc("config.xml", "Configuration/Host[@id='host11']/DA")
**.host14.difAllocator.configData = xmldoc("config.xml", "Configuration/Host[@id='host11']/DA")
**.host15.difAllocator.configData = xmldoc("config.xml", "Configuration/Host[@id='host11']/DA")
**.host16.difAllocator.configData = xmldoc("config.xml", "Configuration/Host[@id='host11']/DA")
**.host17.difAllocator.configData = xmldoc("config.xml", "Configuration/Host[@id='host11']/DA")
**.host18.difAllocator.configData = xmldoc("config.xml", "Configuration/Host[@id='host11']/DA")
**.host19.difAllocator.configData = xmldoc("config.xml", "Configuration/Host[@id='host11']/DA")
**.host110.difAllocator.configData = xmldoc("config.xml", "Configuration/Host[@id='host11']/DA")
**.host111.difAllocator.configData = xmldoc("config.xml", "Configuration/Host[@id='host11']/DA")
**.host112.difAllocator.configData = xmldoc("config.xml", "Configuration/Host[@id='host11']/DA")
**.host113.difAllocator.configData = xmldoc("config.xml", "Configuration/Host[@id='host11']/DA")
**.host114.difAllocator.configData = xmldoc("config.xml", "Configuration/Host[@id='host11']/DA")
**.host115.difAllocator.configData = xmldoc("config.xml", "Configuration/Host[@id='host11']/DA")
**.host116.difAllocator.configData = xmldoc("config.xml", "Configuration/Host[@id='host11']/DA")
**.host117.difAllocator.configData = xmldoc("config.xml", "Configuration/Host[@id='host11']/DA")
**.host118.difAllocator.configData = xmldoc("config.xml", "Configuration/Host[@id='host11']/DA")
**.host119.difAllocator.configData = xmldoc("config.xml", "Configuration/Host[@id='host11']/DA")
**.host120.difAllocator.configData = xmldoc("config.xml", "Configuration/Host[@id='host11']/DA")
**.host21.difAllocator.configData = xmldoc("config.xml", "Configuration/Host[@id='host21']/DA")
**.interiorRouter.difAllocator.configData = xmldoc("config.xml", "Configuration/Router[@id='interiorRouter']/DA")

#QoS Cube sets
#**.host1*.ipcProcess1.resourceAllocator.ra.qoscubesData = xmldoc("config.xml", "Configuration/QoSCubesSet3")
#**.host12.ipcProcess1.resourceAllocator.ra.qoscubesData = xmldoc("config.xml", "Configuration/QoSCubesSet3")
#**.host13.ipcProcess1.resourceAllocator.ra.qoscubesData = xmldoc("config.xml", "Configuration/QoSCubesSet3")
#**.host14.ipcProcess1.resourceAllocator.ra.qoscubesData = xmldoc("config.xml", "Configuration/QoSCubesSet3")
#**.host15.ipcProcess1.resourceAllocator.ra.qoscubesData = xmldoc("config.xml", "Configuration/QoSCubesSet3")
#**.host15.ipcProcess1.resourceAllocator.ra.qoscubesData = xmldoc("config.xml", "Configuration/QoSCubesSet3")
#**.host15.ipcProcess1.resourceAllocator.ra.qoscubesData = xmldoc("config.xml", "Configuration/QoSCubesSet3")
#**.host15.ipcProcess1.resourceAllocator.ra.qoscubesData = xmldoc("config.xml", "Configuration/QoSCubesSet3")
#**.host15.ipcProcess1.resourceAllocator.ra.qoscubesData = xmldoc("config.xml", "Configuration/QoSCubesSet3")
#**.host15.ipcProcess1.resourceAllocator.ra.qoscubesData = xmldoc("config.xml", "Configuration/QoSCubesSet3")
#**.host21.ipcProcess1.resourceAllocator.ra.qoscubesData = xmldoc("config.xml", "Configuration/QoSCubesSet2")

#**.host1*.ipcProcess0.resourceAllocator.ra.qoscubesData = xmldoc("config.xml", "Configuration/QoSCubesSet4")
#**.host12.ipcProcess0.resourceAllocator.ra.qoscubesData = xmldoc("config.xml", "Configuration/QoSCubesSet4")
#**.host13.ipcProcess0.resourceAllocator.ra.qoscubesData = xmldoc("config.xml", "Configuration/QoSCubesSet4")
#**.host14.ipcProcess0.resourceAllocator.ra.qoscubesData = xmldoc("config.xml", "Configuration/QoSCubesSet4")
#**.host15.ipcProcess0.resourceAllocator.ra.qoscubesData = xmldoc("config.xml", "Configuration/QoSCubesSet4")
#**.host21.ipcProcess0.resourceAllocator.ra.qoscubesData = xmldoc("config.xml", "Configuration/QoSCubesSet4")
#**.interiorRouter.ipcProcess0[*].resourceAllocator.ra.qoscubesData = xmldoc("config.xml", "Configuration/QoSCubesSet4")
**.ra.qoscubesData = xmldoc("config.xml", "Configuration/QoSCubesSet")

#Enrollment settings
#**.interiorRouter.**.enrollment.isSelfEnrolled = true
#**.host21.ipcProcess1.enrollment.configData = xmldoc("config.xml", "Configuration/Host[@id='host21']/Enrollment")

**.host*.ipcProcess0.resourceAllocator.ra.preallocation = \
    xmldoc("config.xml", "Configuration/ConnectionSets/ConnectionSet[@id='all']/")
**.interiorRouter.ipcProcess0[*].resourceAllocator.ra.preallocation = \
    xmldoc("config.xml", "Configuration/ConnectionSets/ConnectionSet[@id='all']/")

#Specify timeout of CreateRequest message
#**.fa.createRequestTimeout = 15s
#**.host1.applicationProcess1.applicationEntity.iae.forceOrder = true
#[Config CongestionPing]
#fingerprint = "0000-0000"
#
##Specify AE
#**.applicationEntity.aeType = "AEPing"
#**.iae.aeName = "Ping"
#**.host1.applicationProcess1.applicationEntity.iae.size = 256B
#
##This is  config for testing "slowDown" with EFCP, RMT, RA and RIBd
##PingApp setup
#**.host1.applicationProcess1.applicationEntity.iae.dstApName = "App2"
#**.host1.applicationProcess1.applicationEntity.iae.dstAeName = "Ping"
#**.host1.applicationProcess1.applicationEntity.iae.startAt = 10s
#**.host1.applicationProcess1.applicationEntity.iae.pingAt =  60s
#**.host1.applicationProcess1.applicationEntity.iae.rate = 15
#**.host1.applicationProcess1.applicationEntity.iae.stopAt = 250s
#
#**.interiorRouter.relayIpc.relayAndMux.defaultMaxQLength = 5
#**.interiorRouter.relayIpc.relayAndMux.defaultThreshQLength = 3
#**.interiorRouter.relayIpc.relayAndMux.maxQPolicyName = "UpstreamNotifier"
#
#**.efcp.rtt = 25s
#**.host1.ipcProcess1.efcp.efcp.initialSenderCredit = 50
#**.interiorRouter.ipcProcess1.efcp.efcp.initialSenderCredit = 3
#**.interiorRouter.ipcProcess1.efcp.efcp.maxClosedWinQueLen = 4
#**.host2.ipcProcess0.efcp.efcp.rcvCredit = 3

[Config CongestionStream-1Node]
fingerprint = "c76f-a762"

#Specify AE as Streaming app
**.apType = "APStream"
**.host11.applicationProcess1.AEMonitor.**.iae.size = 1460B

#This is a configuration for testing "slowDown" with EFCP, RMT, RA and RIBd
#PingApp setup
**.host11.applicationProcess1.apInst.dstApName = "App21"
**.host11.applicationProcess1.apInst.startAt = 2s
**.host11.applicationProcess1.apInst.stopAt = 20s
**.host11.applicationProcess1.apInst.interval = 0.0011s#0.00012s

#**.interiorRouter.relayIpc.relayAndMux.defaultMaxQLength = 1
**.interiorRouter.relayIpc.relayAndMux.defaultThreshQLength = 3
**.interiorRouter.relayIpc.relayAndMux.maxQPolicyName = "ECNMarkerLG"
 
**.interiorRouter.ipcProcess0[1].relayAndMux.defaultThreshQLength = 2
**.interiorRouter.ipcProcess0[1].efcp.efcp.maxClosedWinQueLen = 2
 
**.host11.ipcProcess1.efcp.efcp.maxClosedWinQueLen = 1 
#**.interiorRouter.relayIpc.relayAndMux.maxQueuePolicy.marking = true
#**.interiorRouter.relayIpc.relayAndMux.qMonitorPolicyName = "REDMonitor"

**.relayAndMux.defaultMaxQLength = 1000 

**.efcp.rtt = 0.04s
**.host21.ipcProcess0.efcp.efcp.rcvCredit = 17
**.interiorRouter.ipcProcess0[1].efcp.efcp.initialSenderCredit = 17
**.host11.ipcProcess0.efcp.efcp.rcvCredit = 17
**.interiorRouter.ipcProcess0[0].efcp.efcp.initialSenderCredit = 17

**.host*.ipcProcess1.efcp.efcp.initialSenderCredit = 60
**.host*.ipcProcess1.efcp.efcp.rcvCredit = 60
**.host*.ipcProcess0.efcp.efcp.initialSenderCredit = 20
**.host*.ipcProcess0.efcp.efcp.rcvCredit = 20
**.interiorRouter.ipcProcess*.efcp.efcp.rcvCredit = 20
**.interiorRouter.ipcProcess*.efcp.efcp.initialSenderCredit = 20


#**.host2.ipcProcess1.efcp.efcp.rcvrAckPolicy = "RcvrAckPolicyLG"


[Config CongestionStream-2Nodes]
fingerprint = "bc95-bd31"

#Specify AE as Streaming app
**.apType = "APStream"
**.host11.applicationProcess1.AEMonitor.**.iae.size = 1460B

#This is a configuration for testing "slowDown" with EFCP, RMT, RA and RIBd
#PingApp setup
**.host12.applicationProcess1.apInst.dstApName = "App22"
**.host12.applicationProcess1.apInst.startAt = 2s
**.host12.applicationProcess1.apInst.stopAt = 13s
**.host12.applicationProcess1.apInst.interval = 0.0011s#0.00012s

#**.interiorRouter.relayIpc.relayAndMux.defaultMaxQLength = 1
**.interiorRouter.relayIpc.relayAndMux.defaultThreshQLength = 3
**.interiorRouter.relayIpc.relayAndMux.maxQPolicyName = "ECNMarkerLG"
 
**.interiorRouter.ipcProcess0[1].relayAndMux.defaultThreshQLength = 2
**.interiorRouter.ipcProcess0[1].efcp.efcp.maxClosedWinQueLen = 2
 
**.host12.ipcProcess1.efcp.efcp.maxClosedWinQueLen = 1 
#**.interiorRouter.relayIpc.relayAndMux.maxQueuePolicy.marking = true
#**.interiorRouter.relayIpc.relayAndMux.qMonitorPolicyName = "REDMonitor"

**.relayAndMux.defaultMaxQLength = 1000 

**.efcp.rtt = 0.04s
**.host21.ipcProcess0.efcp.efcp.rcvCredit = 17
**.interiorRouter.ipcProcess0[1].efcp.efcp.initialSenderCredit = 17
**.host12.ipcProcess0.efcp.efcp.rcvCredit = 17
**.interiorRouter.ipcProcess0[0].efcp.efcp.initialSenderCredit = 17

**.host*.ipcProcess1.efcp.efcp.initialSenderCredit = 60
**.host*.ipcProcess1.efcp.efcp.rcvCredit = 60
**.host*.ipcProcess0.efcp.efcp.initialSenderCredit = 20
**.host*.ipcProcess0.efcp.efcp.rcvCredit = 20
**.interiorRouter.ipcProcess*.efcp.efcp.rcvCredit = 20
**.interiorRouter.ipcProcess*.efcp.efcp.initialSenderCredit = 20


#**.host2.ipcProcess1.efcp.efcp.rcvrAckPolicy = "RcvrAckPolicyLG"

[Config CongestionStream-2NodesT]
fingerprint = "4b4e-a63f"

#Specify AE as Streaming app
**.apType = "APStream"
**.host11.applicationProcess1.AEMonitor.**.iae.size = 1460B

#This is a configuration for testing "slowDown" with EFCP, RMT, RA and RIBd
#PingApp setup
**.host11.applicationProcess1.apInst.dstApName = "App21"
**.host12.applicationProcess1.apInst.dstApName = "App22"
**.host1*.applicationProcess1.apInst.startAt = 2s 
**.host1*.applicationProcess1.apInst.stopAt = 20s
**.host1*.applicationProcess1.apInst.interval = 0.0011s#0.00012s

#**.interiorRouter.relayIpc.relayAndMux.defaultMaxQLength = 1
**.interiorRouter.relayIpc.relayAndMux.defaultThreshQLength = 2
**.interiorRouter.relayIpc.relayAndMux.maxQPolicyName = "ECNMarkerLG"
 
**.interiorRouter.ipcProcess0[1].relayAndMux.defaultThreshQLength = 1
**.interiorRouter.ipcProcess0[1].efcp.efcp.maxClosedWinQueLen = 1
 
**.host1*.ipcProcess1.efcp.efcp.maxClosedWinQueLen = 1 
#**.interiorRouter.relayIpc.relayAndMux.maxQueuePolicy.marking = true
#**.interiorRouter.relayIpc.relayAndMux.qMonitorPolicyName = "REDMonitor"

**.relayAndMux.defaultMaxQLength = 1000 

**.efcp.rtt = 0.04s
**.host21.ipcProcess0.efcp.efcp.rcvCredit = 17
**.interiorRouter.ipcProcess0[1].efcp.efcp.initialSenderCredit = 17
**.host11.ipcProcess0.efcp.efcp.rcvCredit = 17
**.host12.ipcProcess0.efcp.efcp.rcvCredit = 17
**.interiorRouter.ipcProcess0[0].efcp.efcp.initialSenderCredit = 17
**.interiorRouter.ipcProcess0[2].efcp.efcp.initialSenderCredit = 17

**.host*.ipcProcess1.efcp.efcp.initialSenderCredit = 60
**.host*.ipcProcess1.efcp.efcp.rcvCredit = 60
**.host*.ipcProcess0.efcp.efcp.initialSenderCredit = 20
**.host*.ipcProcess0.efcp.efcp.rcvCredit = 20
**.interiorRouter.ipcProcess*.efcp.efcp.rcvCredit = 20
**.interiorRouter.ipcProcess*.efcp.efcp.initialSenderCredit = 20


#**.host2.ipcProcess1.efcp.efcp.rcvrAckPolicy = "RcvrAckPolicyLG"


[Config CongestionStream-3Nodes]
fingerprint = "452b-7d5b"

#Specify AE as Streaming app
**.apType = "APStream"
**.host11.applicationProcess1.AEMonitor.**.iae.size = 1460B

#This is a configuration for testing "slowDown" with EFCP, RMT, RA and RIBd
#PingApp setup
**.host13.applicationProcess1.apInst.dstApName = "App23"
**.host13.applicationProcess1.apInst.startAt = 2s
**.host13.applicationProcess1.apInst.stopAt = 13s
**.host13.applicationProcess1.apInst.interval = 0.0011s#0.00012s

#**.interiorRouter.relayIpc.relayAndMux.defaultMaxQLength = 1
**.interiorRouter.relayIpc.relayAndMux.defaultThreshQLength = 3
**.interiorRouter.relayIpc.relayAndMux.maxQPolicyName = "ECNMarkerLG"
 
**.interiorRouter.ipcProcess0[1].relayAndMux.defaultThreshQLength = 2
**.interiorRouter.ipcProcess0[1].efcp.efcp.maxClosedWinQueLen = 2
 
**.host13.ipcProcess1.efcp.efcp.maxClosedWinQueLen = 1 
#**.interiorRouter.relayIpc.relayAndMux.maxQueuePolicy.marking = true
#**.interiorRouter.relayIpc.relayAndMux.qMonitorPolicyName = "REDMonitor"

**.relayAndMux.defaultMaxQLength = 1000 

**.efcp.rtt = 0.04s
**.host21.ipcProcess0.efcp.efcp.rcvCredit = 17
**.interiorRouter.ipcProcess0[1].efcp.efcp.initialSenderCredit = 17
**.host13.ipcProcess0.efcp.efcp.rcvCredit = 17
**.interiorRouter.ipcProcess0[0].efcp.efcp.initialSenderCredit = 17

**.host*.ipcProcess1.efcp.efcp.initialSenderCredit = 60
**.host*.ipcProcess1.efcp.efcp.rcvCredit = 60
**.host*.ipcProcess0.efcp.efcp.initialSenderCredit = 20
**.host*.ipcProcess0.efcp.efcp.rcvCredit = 20
**.interiorRouter.ipcProcess*.efcp.efcp.rcvCredit = 20
**.interiorRouter.ipcProcess*.efcp.efcp.initialSenderCredit = 20


#**.host2.ipcProcess1.efcp.efcp.rcvrAckPolicy = "RcvrAckPolicyLG"

[Config CongestionStream-3NodesT]
fingerprint = "320c-0d26"

#Specify AE as Streaming app
**.apType = "APStream"
**.host11.applicationProcess1.AEMonitor.**.iae.size = 1460B

#This is a configuration for testing "slowDown" with EFCP, RMT, RA and RIBd
#PingApp setup
**.host11.applicationProcess1.apInst.dstApName = "App21"
**.host12.applicationProcess1.apInst.dstApName = "App22"
**.host13.applicationProcess1.apInst.dstApName = "App23"
**.host1*.applicationProcess1.apInst.startAt = 2s 
**.host1*.applicationProcess1.apInst.stopAt = 10s
**.host1*.applicationProcess1.apInst.interval = 0.0011s#0.00012s

#**.interiorRouter.relayIpc.relayAndMux.defaultMaxQLength = 1
**.interiorRouter.relayIpc.relayAndMux.defaultThreshQLength = 3
**.interiorRouter.relayIpc.relayAndMux.maxQPolicyName = "ECNMarkerLG"
 
**.interiorRouter.ipcProcess0[1].relayAndMux.defaultThreshQLength = 2
**.interiorRouter.ipcProcess0[1].efcp.efcp.maxClosedWinQueLen = 2
 
**.host1*.ipcProcess1.efcp.efcp.maxClosedWinQueLen = 1 
#**.interiorRouter.relayIpc.relayAndMux.maxQueuePolicy.marking = true
#**.interiorRouter.relayIpc.relayAndMux.qMonitorPolicyName = "REDMonitor"

**.relayAndMux.defaultMaxQLength = 1000 

**.efcp.rtt = 0.04s
**.host21.ipcProcess0.efcp.efcp.rcvCredit = 17
**.interiorRouter.ipcProcess0[1].efcp.efcp.initialSenderCredit = 17
**.host11.ipcProcess0.efcp.efcp.rcvCredit = 17
**.host12.ipcProcess0.efcp.efcp.rcvCredit = 17
**.host13.ipcProcess0.efcp.efcp.rcvCredit = 17
**.interiorRouter.ipcProcess0[0].efcp.efcp.initialSenderCredit = 17
**.interiorRouter.ipcProcess0[2].efcp.efcp.initialSenderCredit = 17

**.host*.ipcProcess1.efcp.efcp.initialSenderCredit = 60
**.host*.ipcProcess1.efcp.efcp.rcvCredit = 60
**.host*.ipcProcess0.efcp.efcp.initialSenderCredit = 20
**.host*.ipcProcess0.efcp.efcp.rcvCredit = 20
**.interiorRouter.ipcProcess*.efcp.efcp.rcvCredit = 20
**.interiorRouter.ipcProcess*.efcp.efcp.initialSenderCredit = 20


#**.host2.ipcProcess1.efcp.efcp.rcvrAckPolicy = "RcvrAckPolicyLG"


[Config CongestionStream-4Nodes]
fingerprint = "c811-4143"

#Specify AE as Streaming app
**.apType = "APStream"
**.host11.applicationProcess1.AEMonitor.**.iae.size = 1460B

#This is a configuration for testing "slowDown" with EFCP, RMT, RA and RIBd
#PingApp setup
**.host14.applicationProcess1.apInst.dstApName = "App24"
**.host14.applicationProcess1.apInst.startAt = 2s 
**.host14.applicationProcess1.apInst.stopAt = 10s
**.host14.applicationProcess1.apInst.interval = 0.0011s#0.00012s

#**.interiorRouter.relayIpc.relayAndMux.defaultMaxQLength = 1
**.interiorRouter.relayIpc.relayAndMux.defaultThreshQLength = 3
**.interiorRouter.relayIpc.relayAndMux.maxQPolicyName = "ECNMarkerLG"
 
**.interiorRouter.ipcProcess0[1].relayAndMux.defaultThreshQLength = 2
**.interiorRouter.ipcProcess0[1].efcp.efcp.maxClosedWinQueLen = 2
 
**.host14.ipcProcess1.efcp.efcp.maxClosedWinQueLen = 1 
#**.interiorRouter.relayIpc.relayAndMux.maxQueuePolicy.marking = true
#**.interiorRouter.relayIpc.relayAndMux.qMonitorPolicyName = "REDMonitor"

**.relayAndMux.defaultMaxQLength = 1000 

**.efcp.rtt = 0.04s
**.host21.ipcProcess0.efcp.efcp.rcvCredit = 17
**.interiorRouter.ipcProcess0[1].efcp.efcp.initialSenderCredit = 17
**.host14.ipcProcess0.efcp.efcp.rcvCredit = 17
**.interiorRouter.ipcProcess0[0].efcp.efcp.initialSenderCredit = 17

**.host*.ipcProcess1.efcp.efcp.initialSenderCredit = 60
**.host*.ipcProcess1.efcp.efcp.rcvCredit = 60
**.host*.ipcProcess0.efcp.efcp.initialSenderCredit = 20
**.host*.ipcProcess0.efcp.efcp.rcvCredit = 20
**.interiorRouter.ipcProcess*.efcp.efcp.rcvCredit = 20
**.interiorRouter.ipcProcess*.efcp.efcp.initialSenderCredit = 20


#**.host2.ipcProcess1.efcp.efcp.rcvrAckPolicy = "RcvrAckPolicyLG"

[Config CongestionStream-4NodesT]
fingerprint = "4956-1795"

#Specify AE as Streaming app
**.apType = "APStream"
**.host11.applicationProcess1.AEMonitor.**.iae.size = 1460B

#This is a configuration for testing "slowDown" with EFCP, RMT, RA and RIBd
#PingApp setup
**.host11.applicationProcess1.apInst.dstApName = "App21"
**.host12.applicationProcess1.apInst.dstApName = "App22"
**.host13.applicationProcess1.apInst.dstApName = "App23"
**.host14.applicationProcess1.apInst.dstApName = "App24"
**.host1*.applicationProcess1.apInst.startAt = 2s 
**.host1*.applicationProcess1.apInst.stopAt = 10s
**.host1*.applicationProcess1.apInst.interval = 0.0011s#0.00012s

#**.interiorRouter.relayIpc.relayAndMux.defaultMaxQLength = 1
**.interiorRouter.relayIpc.relayAndMux.defaultThreshQLength = 2
**.interiorRouter.relayIpc.relayAndMux.maxQPolicyName = "ECNMarkerLG"
 
**.interiorRouter.ipcProcess0[1].relayAndMux.defaultThreshQLength = 1
**.interiorRouter.ipcProcess0[1].efcp.efcp.maxClosedWinQueLen = 1
 
**.host1*.ipcProcess1.efcp.efcp.maxClosedWinQueLen = 1 
#**.interiorRouter.relayIpc.relayAndMux.maxQueuePolicy.marking = true
#**.interiorRouter.relayIpc.relayAndMux.qMonitorPolicyName = "REDMonitor"

**.relayAndMux.defaultMaxQLength = 1000 

**.efcp.rtt = 0.04s
**.host21.ipcProcess0.efcp.efcp.rcvCredit = 17
**.interiorRouter.ipcProcess0[1].efcp.efcp.initialSenderCredit = 17
**.host11.ipcProcess0.efcp.efcp.rcvCredit = 17
**.host12.ipcProcess0.efcp.efcp.rcvCredit = 17
**.host13.ipcProcess0.efcp.efcp.rcvCredit = 17
**.host14.ipcProcess0.efcp.efcp.rcvCredit = 17
**.interiorRouter.ipcProcess0[0].efcp.efcp.initialSenderCredit = 17
**.interiorRouter.ipcProcess0[2].efcp.efcp.initialSenderCredit = 17

**.host*.ipcProcess1.efcp.efcp.initialSenderCredit = 60
**.host*.ipcProcess1.efcp.efcp.rcvCredit = 60
**.host*.ipcProcess0.efcp.efcp.initialSenderCredit = 20
**.host*.ipcProcess0.efcp.efcp.rcvCredit = 20
**.interiorRouter.ipcProcess*.efcp.efcp.rcvCredit = 20
**.interiorRouter.ipcProcess*.efcp.efcp.initialSenderCredit = 20


#**.host2.ipcProcess1.efcp.efcp.rcvrAckPolicy = "RcvrAckPolicyLG"

[Config CongestionStream-5Nodes]
fingerprint = "7f28-29f7"

#Specify AE as Streaming app
**.apType = "APStream"
**.host11.applicationProcess1.AEMonitor.**.iae.size = 1460B

#This is a configuration for testing "slowDown" with EFCP, RMT, RA and RIBd
#PingApp setup
**.host15.applicationProcess1.apInst.dstApName = "App25"
**.host15.applicationProcess1.apInst.startAt = 2s 
**.host15.applicationProcess1.apInst.stopAt = 10s
**.host15.applicationProcess1.apInst.interval = 0.0011s#0.00012s

#**.interiorRouter.relayIpc.relayAndMux.defaultMaxQLength = 1
**.interiorRouter.relayIpc.relayAndMux.defaultThreshQLength = 3
**.interiorRouter.relayIpc.relayAndMux.maxQPolicyName = "ECNMarkerLG"
 
**.interiorRouter.ipcProcess0[1].relayAndMux.defaultThreshQLength = 2
**.interiorRouter.ipcProcess0[1].efcp.efcp.maxClosedWinQueLen = 2
 
**.host15.ipcProcess1.efcp.efcp.maxClosedWinQueLen = 1 
#**.interiorRouter.relayIpc.relayAndMux.maxQueuePolicy.marking = true
#**.interiorRouter.relayIpc.relayAndMux.qMonitorPolicyName = "REDMonitor"

**.relayAndMux.defaultMaxQLength = 1000 

**.efcp.rtt = 0.04s
**.host21.ipcProcess0.efcp.efcp.rcvCredit = 17
**.interiorRouter.ipcProcess0[1].efcp.efcp.initialSenderCredit = 17
**.host15.ipcProcess0.efcp.efcp.rcvCredit = 17
**.interiorRouter.ipcProcess0[0].efcp.efcp.initialSenderCredit = 17

**.host*.ipcProcess1.efcp.efcp.initialSenderCredit = 60
**.host*.ipcProcess1.efcp.efcp.rcvCredit = 60
**.host*.ipcProcess0.efcp.efcp.initialSenderCredit = 20
**.host*.ipcProcess0.efcp.efcp.rcvCredit = 20
**.interiorRouter.ipcProcess*.efcp.efcp.rcvCredit = 20
**.interiorRouter.ipcProcess*.efcp.efcp.initialSenderCredit = 20


#**.host2.ipcProcess1.efcp.efcp.rcvrAckPolicy = "RcvrAckPolicyLG"

[Config CongestionStream-5NodesT]
fingerprint = "3c55-7060"

#Specify AE as Streaming app
**.apType = "APStream"
**.host11.applicationProcess1.AEMonitor.**.iae.size = 1460B

#This is a configuration for testing "slowDown" with EFCP, RMT, RA and RIBd
#PingApp setup
**.host11.applicationProcess1.apInst.dstApName = "App21"
**.host12.applicationProcess1.apInst.dstApName = "App22"
**.host13.applicationProcess1.apInst.dstApName = "App23"
**.host14.applicationProcess1.apInst.dstApName = "App24"
**.host15.applicationProcess1.apInst.dstApName = "App25"
**.host1*.applicationProcess1.apInst.startAt = 2s 
**.host1*.applicationProcess1.apInst.stopAt = 20s
**.host1*.applicationProcess1.apInst.interval = 0.0019s#0.00012s

#**.interiorRouter.relayIpc.relayAndMux.defaultMaxQLength = 1
**.interiorRouter.relayIpc.relayAndMux.defaultThreshQLength = 2
**.interiorRouter.relayIpc.relayAndMux.maxQPolicyName = "ECNMarkerLG"
 
**.interiorRouter.ipcProcess0[1].relayAndMux.defaultThreshQLength = 1
**.interiorRouter.ipcProcess0[1].efcp.efcp.maxClosedWinQueLen = 1
 
**.host1*.ipcProcess1.efcp.efcp.maxClosedWinQueLen = 1 
#**.interiorRouter.relayIpc.relayAndMux.maxQueuePolicy.marking = true
#**.interiorRouter.relayIpc.relayAndMux.qMonitorPolicyName = "REDMonitor"

**.relayAndMux.defaultMaxQLength = 1000 

**.efcp.rtt = 0.04s
**.host21.ipcProcess0.efcp.efcp.rcvCredit = 17
**.interiorRouter.ipcProcess0[1].efcp.efcp.initialSenderCredit = 17
**.host11.ipcProcess0.efcp.efcp.rcvCredit = 17
**.host12.ipcProcess0.efcp.efcp.rcvCredit = 17
**.host13.ipcProcess0.efcp.efcp.rcvCredit = 17
**.host14.ipcProcess0.efcp.efcp.rcvCredit = 17
**.host15.ipcProcess0.efcp.efcp.rcvCredit = 17
**.interiorRouter.ipcProcess0[0].efcp.efcp.initialSenderCredit = 17
**.interiorRouter.ipcProcess0[2].efcp.efcp.initialSenderCredit = 17

**.host*.ipcProcess1.efcp.efcp.initialSenderCredit = 60
**.host*.ipcProcess1.efcp.efcp.rcvCredit = 60
**.host*.ipcProcess0.efcp.efcp.initialSenderCredit = 20
**.host*.ipcProcess0.efcp.efcp.rcvCredit = 20
**.interiorRouter.ipcProcess*.efcp.efcp.rcvCredit = 20
**.interiorRouter.ipcProcess*.efcp.efcp.initialSenderCredit = 20


#**.host2.ipcProcess1.efcp.efcp.rcvrAckPolicy = "RcvrAckPolicyLG"

[Config CongestionStream-6Nodes]
fingerprint = "da18-2ee2"

#Specify AE as Streaming app
**.apType = "APStream"
**.host11.applicationProcess1.AEMonitor.**.iae.size = 1460B

#This is a configuration for testing "slowDown" with EFCP, RMT, RA and RIBd
#PingApp setup
**.host16.applicationProcess1.apInst.dstApName = "App26"
**.host16.applicationProcess1.apInst.startAt = 2s