[General]
network = randPrefNet

debug-on-errors = true
seed-set = ${runnumber}
sim-time-limit = 3min

#Addressing settings
#Global Addr
**.relayIpc.difName = "Cloud"
**.R1I1.relayIpc.ipcAddress = "1.1"
**.R1I2.relayIpc.ipcAddress = "1.2"
**.R1I3.relayIpc.ipcAddress = "1.3"
**.R1I4.relayIpc.ipcAddress = "1.4"
**.R1I5.relayIpc.ipcAddress = "1.5"
**.R1I6.relayIpc.ipcAddress = "1.6"
**.R1I7.relayIpc.ipcAddress = "1.7"
**.R1I8.relayIpc.ipcAddress = "1.8"
**.R1I9.relayIpc.ipcAddress = "1.9"
**.R2I1.relayIpc.ipcAddress = "2.1"
**.R2I2.relayIpc.ipcAddress = "2.2"
**.R2I3.relayIpc.ipcAddress = "2.3"
**.R2I4.relayIpc.ipcAddress = "2.4"
**.R2I5.relayIpc.ipcAddress = "2.5"
**.R2I6.relayIpc.ipcAddress = "2.6"
**.R2I7.relayIpc.ipcAddress = "2.7"
**.R2I8.relayIpc.ipcAddress = "2.8"
**.R2I9.relayIpc.ipcAddress = "2.9"
**.R2Ia.relayIpc.ipcAddress = "2.a"
**.R2Ib.relayIpc.ipcAddress = "2.b"
**.R3I1.relayIpc.ipcAddress = "3.1"
**.R3I2.relayIpc.ipcAddress = "3.2"
**.R3I3.relayIpc.ipcAddress = "3.3"
**.R3I4.relayIpc.ipcAddress = "3.4"
**.R3I5.relayIpc.ipcAddress = "3.5"
**.R3I6.relayIpc.ipcAddress = "3.6"
**.R3I7.relayIpc.ipcAddress = "3.7"
**.R3I8.relayIpc.ipcAddress = "3.8"
**.R3I9.relayIpc.ipcAddress = "3.9"
**.R3Ia.relayIpc.ipcAddress = "3.a"
**.R4I1.relayIpc.ipcAddress = "4.1"
**.R4I2.relayIpc.ipcAddress = "4.2"
**.R4I3.relayIpc.ipcAddress = "4.3"
**.R4I4.relayIpc.ipcAddress = "4.4"
**.R4I5.relayIpc.ipcAddress = "4.5"
**.R4I6.relayIpc.ipcAddress = "4.6"
**.R4I7.relayIpc.ipcAddress = "4.7"
**.R4I8.relayIpc.ipcAddress = "4.8"
**.R5I1.relayIpc.ipcAddress = "5.1"
**.R5I2.relayIpc.ipcAddress = "5.2"
**.R5I3.relayIpc.ipcAddress = "5.3"
**.R5I4.relayIpc.ipcAddress = "5.4"
**.R5I5.relayIpc.ipcAddress = "5.5"
**.R5I6.relayIpc.ipcAddress = "5.6"
**.R5I7.relayIpc.ipcAddress = "5.7"
**.R5I8.relayIpc.ipcAddress = "5.8"
**.R5I9.relayIpc.ipcAddress = "5.9"
**.R5Ia.relayIpc.ipcAddress = "5.a"
**.R5Ib.relayIpc.ipcAddress = "5.b"
**.R6I1.relayIpc.ipcAddress = "6.1"
**.R6I2.relayIpc.ipcAddress = "6.2"
**.R6I3.relayIpc.ipcAddress = "6.3"
**.R6I4.relayIpc.ipcAddress = "6.4"
**.R6I5.relayIpc.ipcAddress = "6.5"
**.R6I6.relayIpc.ipcAddress = "6.6"
**.R6I7.relayIpc.ipcAddress = "6.7"
**.R6I8.relayIpc.ipcAddress = "6.8"
**.R6I9.relayIpc.ipcAddress = "6.9"
**.R6Ia.relayIpc.ipcAddress = "6.a"
**.R6Ib.relayIpc.ipcAddress = "6.b"
**.R7I1.relayIpc.ipcAddress = "7.1"
**.R7I2.relayIpc.ipcAddress = "7.2"
**.R7I3.relayIpc.ipcAddress = "7.3"
**.R7I4.relayIpc.ipcAddress = "7.4"
**.R7I5.relayIpc.ipcAddress = "7.5"
**.R7I6.relayIpc.ipcAddress = "7.6"
**.R7I7.relayIpc.ipcAddress = "7.7"
**.R7I8.relayIpc.ipcAddress = "7.8"
**.R8I1.relayIpc.ipcAddress = "8.1"
**.R8I2.relayIpc.ipcAddress = "8.2"
**.R8I3.relayIpc.ipcAddress = "8.3"
**.R8I4.relayIpc.ipcAddress = "8.4"
**.R8I5.relayIpc.ipcAddress = "8.5"
**.R8I6.relayIpc.ipcAddress = "8.6"
**.R8I7.relayIpc.ipcAddress = "8.7"
**.R8I8.relayIpc.ipcAddress = "8.8"
**.R8I9.relayIpc.ipcAddress = "8.9"
**.R8Ia.relayIpc.ipcAddress = "8.a"
**.R8Ib.relayIpc.ipcAddress = "8.b"
**.R9I1.relayIpc.ipcAddress = "9.1"
**.R9I2.relayIpc.ipcAddress = "9.2"
**.R9I3.relayIpc.ipcAddress = "9.3"
**.R9I4.relayIpc.ipcAddress = "9.4"
**.R9I5.relayIpc.ipcAddress = "9.5"
**.R9I6.relayIpc.ipcAddress = "9.6"
**.R9I7.relayIpc.ipcAddress = "9.7"
**.R9I8.relayIpc.ipcAddress = "9.8"
**.R9I9.relayIpc.ipcAddress = "9.9"
**.RaI1.relayIpc.ipcAddress = "a.1"
**.RaI2.relayIpc.ipcAddress = "a.2"
**.RaI3.relayIpc.ipcAddress = "a.3"
**.RaI4.relayIpc.ipcAddress = "a.4"
**.RaI5.relayIpc.ipcAddress = "a.5"
**.RaI6.relayIpc.ipcAddress = "a.6"
**.RaI7.relayIpc.ipcAddress = "a.7"
**.RaI8.relayIpc.ipcAddress = "a.8"
**.RaI9.relayIpc.ipcAddress = "a.9"

#Intra
**.R1I1.intraIpc[0].difName = "R1I1R1I9"
**.R1I1.intraIpc[0].ipcAddress = "A"
**.R1I2.intraIpc[0].difName = "R1I2R1I3"
**.R1I2.intraIpc[0].ipcAddress = "A"
**.R1I2.intraIpc[1].difName = "R1I2R1I4"
**.R1I2.intraIpc[1].ipcAddress = "A"
**.R1I2.intraIpc[2].difName = "R1I2R1I6"
**.R1I2.intraIpc[2].ipcAddress = "A"
**.R1I2.intraIpc[3].difName = "R1I2R1I7"
**.R1I2.intraIpc[3].ipcAddress = "A"
**.R1I2.intraIpc[4].difName = "R1I2R1I8"
**.R1I2.intraIpc[4].ipcAddress = "A"
**.R1I3.intraIpc[0].difName = "R1I2R1I3"
**.R1I3.intraIpc[0].ipcAddress = "B"
**.R1I3.intraIpc[1].difName = "R1I3R1I4"
**.R1I3.intraIpc[1].ipcAddress = "A"
**.R1I3.intraIpc[2].difName = "R1I3R1I8"
**.R1I3.intraIpc[2].ipcAddress = "A"
**.R1I3.intraIpc[3].difName = "R1I3R1I9"
**.R1I3.intraIpc[3].ipcAddress = "A"
**.R1I4.intraIpc[0].difName = "R1I2R1I4"
**.R1I4.intraIpc[0].ipcAddress = "B"
**.R1I4.intraIpc[1].difName = "R1I3R1I4"
**.R1I4.intraIpc[1].ipcAddress = "B"
**.R1I4.intraIpc[2].difName = "R1I4R1I5"
**.R1I4.intraIpc[2].ipcAddress = "A"
**.R1I5.intraIpc[0].difName = "R1I4R1I5"
**.R1I5.intraIpc[0].ipcAddress = "B"
**.R1I5.intraIpc[1].difName = "R1I5R1I7"
**.R1I5.intraIpc[1].ipcAddress = "A"
**.R1I6.intraIpc[0].difName = "R1I2R1I6"
**.R1I6.intraIpc[0].ipcAddress = "B"
**.R1I6.intraIpc[1].difName = "R1I6R1I9"
**.R1I6.intraIpc[1].ipcAddress = "A"
**.R1I7.intraIpc[0].difName = "R1I2R1I7"
**.R1I7.intraIpc[0].ipcAddress = "B"
**.R1I7.intraIpc[1].difName = "R1I5R1I7"
**.R1I7.intraIpc[1].ipcAddress = "B"
**.R1I7.intraIpc[2].difName = "R1I7R1I8"
**.R1I7.intraIpc[2].ipcAddress = "A"
**.R1I8.intraIpc[0].difName = "R1I2R1I8"
**.R1I8.intraIpc[0].ipcAddress = "B"
**.R1I8.intraIpc[1].difName = "R1I3R1I8"
**.R1I8.intraIpc[1].ipcAddress = "B"
**.R1I8.intraIpc[2].difName = "R1I7R1I8"
**.R1I8.intraIpc[2].ipcAddress = "B"
**.R1I9.intraIpc[0].difName = "R1I1R1I9"
**.R1I9.intraIpc[0].ipcAddress = "B"
**.R1I9.intraIpc[1].difName = "R1I3R1I9"
**.R1I9.intraIpc[1].ipcAddress = "B"
**.R1I9.intraIpc[2].difName = "R1I6R1I9"
**.R1I9.intraIpc[2].ipcAddress = "B"
**.R2I1.intraIpc[0].difName = "R2I1R2I3"
**.R2I1.intraIpc[0].ipcAddress = "A"
**.R2I1.intraIpc[1].difName = "R2I1R2I5"
**.R2I1.intraIpc[1].ipcAddress = "A"
**.R2I1.intraIpc[2].difName = "R2I1R2I7"
**.R2I1.intraIpc[2].ipcAddress = "A"
**.R2I1.intraIpc[3].difName = "R2I1R2I8"
**.R2I1.intraIpc[3].ipcAddress = "A"
**.R2I2.intraIpc[0].difName = "R2I2R2I5"
**.R2I2.intraIpc[0].ipcAddress = "A"
**.R2I2.intraIpc[1].difName = "R2I2R2Ib"
**.R2I2.intraIpc[1].ipcAddress = "A"
**.R2I3.intraIpc[0].difName = "R2I1R2I3"
**.R2I3.intraIpc[0].ipcAddress = "B"
**.R2I3.intraIpc[1].difName = "R2I3R2I6"
**.R2I3.intraIpc[1].ipcAddress = "A"
**.R2I3.intraIpc[2].difName = "R2I3R2I9"
**.R2I3.intraIpc[2].ipcAddress = "A"
**.R2I4.intraIpc[0].difName = "R2I4R2I6"
**.R2I4.intraIpc[0].ipcAddress = "A"
**.R2I4.intraIpc[1].difName = "R2I4R2I8"
**.R2I4.intraIpc[1].ipcAddress = "A"
**.R2I5.intraIpc[0].difName = "R2I1R2I5"
**.R2I5.intraIpc[0].ipcAddress = "B"
**.R2I5.intraIpc[1].difName = "R2I2R2I5"
**.R2I5.intraIpc[1].ipcAddress = "B"
**.R2I5.intraIpc[2].difName = "R2I5R2I6"
**.R2I5.intraIpc[2].ipcAddress = "A"
**.R2I5.intraIpc[3].difName = "R2I5R2Ib"
**.R2I5.intraIpc[3].ipcAddress = "A"
**.R2I6.intraIpc[0].difName = "R2I3R2I6"
**.R2I6.intraIpc[0].ipcAddress = "B"
**.R2I6.intraIpc[1].difName = "R2I4R2I6"
**.R2I6.intraIpc[1].ipcAddress = "B"
**.R2I6.intraIpc[2].difName = "R2I5R2I6"
**.R2I6.intraIpc[2].ipcAddress = "B"
**.R2I6.intraIpc[3].difName = "R2I6R2Ia"
**.R2I6.intraIpc[3].ipcAddress = "A"
**.R2I7.intraIpc[0].difName = "R2I1R2I7"
**.R2I7.intraIpc[0].ipcAddress = "B"
**.R2I7.intraIpc[1].difName = "R2I7R2I9"
**.R2I7.intraIpc[1].ipcAddress = "A"
**.R2I8.intraIpc[0].difName = "R2I1R2I8"
**.R2I8.intraIpc[0].ipcAddress = "B"
**.R2I8.intraIpc[1].difName = "R2I4R2I8"
**.R2I8.intraIpc[1].ipcAddress = "B"
**.R2I9.intraIpc[0].difName = "R2I3R2I9"
**.R2I9.intraIpc[0].ipcAddress = "B"
**.R2I9.intraIpc[1].difName = "R2I7R2I9"
**.R2I9.intraIpc[1].ipcAddress = "B"
**.R2I9.intraIpc[2].difName = "R2I9R2Ib"
**.R2I9.intraIpc[2].ipcAddress = "A"
**.R2Ia.intraIpc[0].difName = "R2I6R2Ia"
**.R2Ia.intraIpc[0].ipcAddress = "B"
**.R2Ia.intraIpc[1].difName = "R2IaR2Ib"
**.R2Ia.intraIpc[1].ipcAddress = "A"
**.R2Ib.intraIpc[0].difName = "R2I2R2Ib"
**.R2Ib.intraIpc[0].ipcAddress = "B"
**.R2Ib.intraIpc[1].difName = "R2I5R2Ib"
**.R2Ib.intraIpc[1].ipcAddress = "B"
**.R2Ib.intraIpc[2].difName = "R2I9R2Ib"
**.R2Ib.intraIpc[2].ipcAddress = "B"
**.R2Ib.intraIpc[3].difName = "R2IaR2Ib"
**.R2Ib.intraIpc[3].ipcAddress = "B"
**.R3I1.intraIpc[0].difName = "R3I1R3I2"
**.R3I1.intraIpc[0].ipcAddress = "A"
**.R3I1.intraIpc[1].difName = "R3I1R3I6"
**.R3I1.intraIpc[1].ipcAddress = "A"
**.R3I2.intraIpc[0].difName = "R3I1R3I2"
**.R3I2.intraIpc[0].ipcAddress = "B"
**.R3I2.intraIpc[1].difName = "R3I2R3I6"
**.R3I2.intraIpc[1].ipcAddress = "A"
**.R3I2.intraIpc[2].difName = "R3I2R3I8"
**.R3I2.intraIpc[2].ipcAddress = "A"
**.R3I2.intraIpc[3].difName = "R3I2R3I9"
**.R3I2.intraIpc[3].ipcAddress = "A"
**.R3I2.intraIpc[4].difName = "R3I2R3Ia"
**.R3I2.intraIpc[4].ipcAddress = "A"
**.R3I3.intraIpc[0].difName = "R3I3R3Ia"
**.R3I3.intraIpc[0].ipcAddress = "A"
**.R3I4.intraIpc[0].difName = "R3I4R3I5"
**.R3I4.intraIpc[0].ipcAddress = "A"
**.R3I4.intraIpc[1].difName = "R3I4R3I7"
**.R3I4.intraIpc[1].ipcAddress = "A"
**.R3I4.intraIpc[2].difName = "R3I4R3I9"
**.R3I4.intraIpc[2].ipcAddress = "A"
**.R3I5.intraIpc[0].difName = "R3I4R3I5"
**.R3I5.intraIpc[0].ipcAddress = "B"
**.R3I5.intraIpc[1].difName = "R3I5R3I7"
**.R3I5.intraIpc[1].ipcAddress = "A"
**.R3I5.intraIpc[2].difName = "R3I5R3Ia"
**.R3I5.intraIpc[2].ipcAddress = "A"
**.R3I6.intraIpc[0].difName = "R3I1R3I6"
**.R3I6.intraIpc[0].ipcAddress = "B"
**.R3I6.intraIpc[1].difName = "R3I2R3I6"
**.R3I6.intraIpc[1].ipcAddress = "B"
**.R3I7.intraIpc[0].difName = "R3I4R3I7"
**.R3I7.intraIpc[0].ipcAddress = "B"
**.R3I7.intraIpc[1].difName = "R3I5R3I7"
**.R3I7.intraIpc[1].ipcAddress = "B"
**.R3I7.intraIpc[2].difName = "R3I7R3I8"
**.R3I7.intraIpc[2].ipcAddress = "A"
**.R3I8.intraIpc[0].difName = "R3I2R3I8"
**.R3I8.intraIpc[0].ipcAddress = "B"
**.R3I8.intraIpc[1].difName = "R3I7R3I8"
**.R3I8.intraIpc[1].ipcAddress = "B"
**.R3I8.intraIpc[2].difName = "R3I8R3I9"
**.R3I8.intraIpc[2].ipcAddress = "A"
**.R3I9.intraIpc[0].difName = "R3I2R3I9"
**.R3I9.intraIpc[0].ipcAddress = "B"
**.R3I9.intraIpc[1].difName = "R3I4R3I9"
**.R3I9.intraIpc[1].ipcAddress = "B"
**.R3I9.intraIpc[2].difName = "R3I8R3I9"
**.R3I9.intraIpc[2].ipcAddress = "B"
**.R3I9.intraIpc[3].difName = "R3I9R3Ia"
**.R3I9.intraIpc[3].ipcAddress = "A"
**.R3Ia.intraIpc[0].difName = "R3I2R3Ia"
**.R3Ia.intraIpc[0].ipcAddress = "B"
**.R3Ia.intraIpc[1].difName = "R3I3R3Ia"
**.R3Ia.intraIpc[1].ipcAddress = "B"
**.R3Ia.intraIpc[2].difName = "R3I5R3Ia"
**.R3Ia.intraIpc[2].ipcAddress = "B"
**.R3Ia.intraIpc[3].difName = "R3I9R3Ia"
**.R3Ia.intraIpc[3].ipcAddress = "B"
**.R4I1.intraIpc[0].difName = "R4I1R4I2"
**.R4I1.intraIpc[0].ipcAddress = "A"
**.R4I1.intraIpc[1].difName = "R4I1R4I4"
**.R4I1.intraIpc[1].ipcAddress = "A"
**.R4I1.intraIpc[2].difName = "R4I1R4I8"
**.R4I1.intraIpc[2].ipcAddress = "A"
**.R4I2.intraIpc[0].difName = "R4I1R4I2"
**.R4I2.intraIpc[0].ipcAddress = "B"
**.R4I2.intraIpc[1].difName = "R4I2R4I3"
**.R4I2.intraIpc[1].ipcAddress = "A"
**.R4I2.intraIpc[2].difName = "R4I2R4I5"
**.R4I2.intraIpc[2].ipcAddress = "A"
**.R4I2.intraIpc[3].difName = "R4I2R4I8"
**.R4I2.intraIpc[3].ipcAddress = "A"
**.R4I3.intraIpc[0].difName = "R4I2R4I3"
**.R4I3.intraIpc[0].ipcAddress = "B"
**.R4I3.intraIpc[1].difName = "R4I3R4I5"
**.R4I3.intraIpc[1].ipcAddress = "A"
**.R4I3.intraIpc[2].difName = "R4I3R4I6"
**.R4I3.intraIpc[2].ipcAddress = "A"
**.R4I4.intraIpc[0].difName = "R4I1R4I4"
**.R4I4.intraIpc[0].ipcAddress = "B"
**.R4I4.intraIpc[1].difName = "R4I4R4I5"
**.R4I4.intraIpc[1].ipcAddress = "A"
**.R4I4.intraIpc[2].difName = "R4I4R4I7"
**.R4I4.intraIpc[2].ipcAddress = "A"
**.R4I5.intraIpc[0].difName = "R4I2R4I5"
**.R4I5.intraIpc[0].ipcAddress = "B"
**.R4I5.intraIpc[1].difName = "R4I3R4I5"
**.R4I5.intraIpc[1].ipcAddress = "B"
**.R4I5.intraIpc[2].difName = "R4I4R4I5"
**.R4I5.intraIpc[2].ipcAddress = "B"
**.R4I5.intraIpc[3].difName = "R4I5R4I7"
**.R4I5.intraIpc[3].ipcAddress = "A"
**.R4I6.intraIpc[0].difName = "R4I3R4I6"
**.R4I6.intraIpc[0].ipcAddress = "B"
**.R4I7.intraIpc[0].difName = "R4I4R4I7"
**.R4I7.intraIpc[0].ipcAddress = "B"
**.R4I7.intraIpc[1].difName = "R4I5R4I7"
**.R4I7.intraIpc[1].ipcAddress = "B"
**.R4I7.intraIpc[2].difName = "R4I7R4I8"
**.R4I7.intraIpc[2].ipcAddress = "A"
**.R4I8.intraIpc[0].difName = "R4I1R4I8"
**.R4I8.intraIpc[0].ipcAddress = "B"
**.R4I8.intraIpc[1].difName = "R4I2R4I8"
**.R4I8.intraIpc[1].ipcAddress = "B"
**.R4I8.intraIpc[2].difName = "R4I7R4I8"
**.R4I8.intraIpc[2].ipcAddress = "B"
**.R5I1.intraIpc[0].difName = "R5I1R5I3"
**.R5I1.intraIpc[0].ipcAddress = "A"
**.R5I1.intraIpc[1].difName = "R5I1R5I4"
**.R5I1.intraIpc[1].ipcAddress = "A"
**.R5I1.intraIpc[2].difName = "R5I1R5I7"
**.R5I1.intraIpc[2].ipcAddress = "A"
**.R5I2.intraIpc[0].difName = "R5I2R5I3"
**.R5I2.intraIpc[0].ipcAddress = "A"
**.R5I2.intraIpc[1].difName = "R5I2R5I4"
**.R5I2.intraIpc[1].ipcAddress = "A"
**.R5I2.intraIpc[2].difName = "R5I2R5I6"
**.R5I2.intraIpc[2].ipcAddress = "A"
**.R5I2.intraIpc[3].difName = "R5I2R5I7"
**.R5I2.intraIpc[3].ipcAddress = "A"
**.R5I2.intraIpc[4].difName = "R5I2R5Ib"
**.R5I2.intraIpc[4].ipcAddress = "A"
**.R5I3.intraIpc[0].difName = "R5I1R5I3"
**.R5I3.intraIpc[0].ipcAddress = "B"
**.R5I3.intraIpc[1].difName = "R5I2R5I3"
**.R5I3.intraIpc[1].ipcAddress = "B"
**.R5I3.intraIpc[2].difName = "R5I3R5I5"
**.R5I3.intraIpc[2].ipcAddress = "A"
**.R5I3.intraIpc[3].difName = "R5I3R5I9"
**.R5I3.intraIpc[3].ipcAddress = "A"
**.R5I4.intraIpc[0].difName = "R5I1R5I4"
**.R5I4.intraIpc[0].ipcAddress = "B"
**.R5I4.intraIpc[1].difName = "R5I2R5I4"
**.R5I4.intraIpc[1].ipcAddress = "B"
**.R5I4.intraIpc[2].difName = "R5I4R5I6"
**.R5I4.intraIpc[2].ipcAddress = "A"
**.R5I4.intraIpc[3].difName = "R5I4R5I9"
**.R5I4.intraIpc[3].ipcAddress = "A"
**.R5I5.intraIpc[0].difName = "R5I3R5I5"
**.R5I5.intraIpc[0].ipcAddress = "B"
**.R5I6.intraIpc[0].difName = "R5I2R5I6"
**.R5I6.intraIpc[0].ipcAddress = "B"
**.R5I6.intraIpc[1].difName = "R5I4R5I6"
**.R5I6.intraIpc[1].ipcAddress = "B"
**.R5I6.intraIpc[2].difName = "R5I6R5I7"
**.R5I6.intraIpc[2].ipcAddress = "A"
**.R5I6.intraIpc[3].difName = "R5I6R5I8"
**.R5I6.intraIpc[3].ipcAddress = "A"
**.R5I7.intraIpc[0].difName = "R5I1R5I7"
**.R5I7.intraIpc[0].ipcAddress = "B"
**.R5I7.intraIpc[1].difName = "R5I2R5I7"
**.R5I7.intraIpc[1].ipcAddress = "B"
**.R5I7.intraIpc[2].difName = "R5I6R5I7"
**.R5I7.intraIpc[2].ipcAddress = "B"
**.R5I7.intraIpc[3].difName = "R5I7R5Ia"
**.R5I7.intraIpc[3].ipcAddress = "A"
**.R5I8.intraIpc[0].difName = "R5I6R5I8"
**.R5I8.intraIpc[0].ipcAddress = "B"
**.R5I8.intraIpc[1].difName = "R5I8R5Ia"
**.R5I8.intraIpc[1].ipcAddress = "A"
**.R5I9.intraIpc[0].difName = "R5I3R5I9"
**.R5I9.intraIpc[0].ipcAddress = "B"
**.R5I9.intraIpc[1].difName = "R5I4R5I9"
**.R5I9.intraIpc[1].ipcAddress = "B"
**.R5Ia.intraIpc[0].difName = "R5I7R5Ia"
**.R5Ia.intraIpc[0].ipcAddress = "B"
**.R5Ia.intraIpc[1].difName = "R5I8R5Ia"
**.R5Ia.intraIpc[1].ipcAddress = "B"
**.R5Ib.intraIpc[0].difName = "R5I2R5Ib"
**.R5Ib.intraIpc[0].ipcAddress = "B"
**.R6I1.intraIpc[0].difName = "R6I1R6I6"
**.R6I1.intraIpc[0].ipcAddress = "A"
**.R6I1.intraIpc[1].difName = "R6I1R6I8"
**.R6I1.intraIpc[1].ipcAddress = "A"
**.R6I2.intraIpc[0].difName = "R6I2R6I6"
**.R6I2.intraIpc[0].ipcAddress = "A"
**.R6I2.intraIpc[1].difName = "R6I2R6I9"
**.R6I2.intraIpc[1].ipcAddress = "A"
**.R6I3.intraIpc[0].difName = "R6I3R6I4"
**.R6I3.intraIpc[0].ipcAddress = "A"
**.R6I3.intraIpc[1].difName = "R6I3R6I5"
**.R6I3.intraIpc[1].ipcAddress = "A"
**.R6I3.intraIpc[2].difName = "R6I3R6I6"
**.R6I3.intraIpc[2].ipcAddress = "A"
**.R6I3.intraIpc[3].difName = "R6I3R6I9"
**.R6I3.intraIpc[3].ipcAddress = "A"
**.R6I4.intraIpc[0].difName = "R6I3R6I4"
**.R6I4.intraIpc[0].ipcAddress = "B"
**.R6I4.intraIpc[1].difName = "R6I4R6I6"
**.R6I4.intraIpc[1].ipcAddress = "A"
**.R6I4.intraIpc[2].difName = "R6I4R6I7"
**.R6I4.intraIpc[2].ipcAddress = "A"
**.R6I5.intraIpc[0].difName = "R6I3R6I5"
**.R6I5.intraIpc[0].ipcAddress = "B"
**.R6I5.intraIpc[1].difName = "R6I5R6I8"
**.R6I5.intraIpc[1].ipcAddress = "A"
**.R6I6.intraIpc[0].difName = "R6I1R6I6"
**.R6I6.intraIpc[0].ipcAddress = "B"
**.R6I6.intraIpc[1].difName = "R6I2R6I6"
**.R6I6.intraIpc[1].ipcAddress = "B"
**.R6I6.intraIpc[2].difName = "R6I3R6I6"
**.R6I6.intraIpc[2].ipcAddress = "B"
**.R6I6.intraIpc[3].difName = "R6I4R6I6"
**.R6I6.intraIpc[3].ipcAddress = "B"
**.R6I6.intraIpc[4].difName = "R6I6R6Ib"
**.R6I6.intraIpc[4].ipcAddress = "A"
**.R6I7.intraIpc[0].difName = "R6I4R6I7"
**.R6I7.intraIpc[0].ipcAddress = "B"
**.R6I8.intraIpc[0].difName = "R6I1R6I8"
**.R6I8.intraIpc[0].ipcAddress = "B"
**.R6I8.intraIpc[1].difName = "R6I5R6I8"
**.R6I8.intraIpc[1].ipcAddress = "B"
**.R6I8.intraIpc[2].difName = "R6I8R6Ia"
**.R6I8.intraIpc[2].ipcAddress = "A"
**.R6I9.intraIpc[0].difName = "R6I2R6I9"
**.R6I9.intraIpc[0].ipcAddress = "B"
**.R6I9.intraIpc[1].difName = "R6I3R6I9"
**.R6I9.intraIpc[1].ipcAddress = "B"
**.R6I9.intraIpc[2].difName = "R6I9R6Ia"
**.R6I9.intraIpc[2].ipcAddress = "A"
**.R6I9.intraIpc[3].difName = "R6I9R6Ib"
**.R6I9.intraIpc[3].ipcAddress = "A"
**.R6Ia.intraIpc[0].difName = "R6I8R6Ia"
**.R6Ia.intraIpc[0].ipcAddress = "B"
**.R6Ia.intraIpc[1].difName = "R6I9R6Ia"
**.R6Ia.intraIpc[1].ipcAddress = "B"
**.R6Ia.intraIpc[2].difName = "R6IaR6Ib"
**.R6Ia.intraIpc[2].ipcAddress = "A"
**.R6Ib.intraIpc[0].difName = "R6I6R6Ib"
**.R6Ib.intraIpc[0].ipcAddress = "B"
**.R6Ib.intraIpc[1].difName = "R6I9R6Ib"
**.R6Ib.intraIpc[1].ipcAddress = "B"
**.R6Ib.intraIpc[2].difName = "R6IaR6Ib"
**.R6Ib.intraIpc[2].ipcAddress = "B"
**.R7I1.intraIpc[0].difName = "R7I1R7I2"
**.R7I1.intraIpc[0].ipcAddress = "A"
**.R7I1.intraIpc[1].difName = "R7I1R7I3"
**.R7I1.intraIpc[1].ipcAddress = "A"
**.R7I1.intraIpc[2].difName = "R7I1R7I4"
**.R7I1.intraIpc[2].ipcAddress = "A"
**.R7I1.intraIpc[3].difName = "R7I1R7I5"
**.R7I1.intraIpc[3].ipcAddress = "A"
**.R7I1.intraIpc[4].difName = "R7I1R7I8"
**.R7I1.intraIpc[4].ipcAddress = "A"
**.R7I2.intraIpc[0].difName = "R7I1R7I2"
**.R7I2.intraIpc[0].ipcAddress = "B"
**.R7I2.intraIpc[1].difName = "R7I2R7I5"
**.R7I2.intraIpc[1].ipcAddress = "A"
**.R7I2.intraIpc[2].difName = "R7I2R7I7"
**.R7I2.intraIpc[2].ipcAddress = "A"
**.R7I3.intraIpc[0].difName = "R7I1R7I3"
**.R7I3.intraIpc[0].ipcAddress = "B"
**.R7I3.intraIpc[1].difName = "R7I3R7I6"
**.R7I3.intraIpc[1].ipcAddress = "A"
**.R7I4.intraIpc[0].difName = "R7I1R7I4"
**.R7I4.intraIpc[0].ipcAddress = "B"
**.R7I4.intraIpc[1].difName = "R7I4R7I5"
**.R7I4.intraIpc[1].ipcAddress = "A"
**.R7I5.intraIpc[0].difName = "R7I1R7I5"
**.R7I5.intraIpc[0].ipcAddress = "B"
**.R7I5.intraIpc[1].difName = "R7I2R7I5"
**.R7I5.intraIpc[1].ipcAddress = "B"
**.R7I5.intraIpc[2].difName = "R7I4R7I5"
**.R7I5.intraIpc[2].ipcAddress = "B"
**.R7I5.intraIpc[3].difName = "R7I5R7I7"
**.R7I5.intraIpc[3].ipcAddress = "A"
**.R7I5.intraIpc[4].difName = "R7I5R7I8"
**.R7I5.intraIpc[4].ipcAddress = "A"
**.R7I6.intraIpc[0].difName = "R7I3R7I6"
**.R7I6.intraIpc[0].ipcAddress = "B"
**.R7I6.intraIpc[1].difName = "R7I6R7I7"
**.R7I6.intraIpc[1].ipcAddress = "A"
**.R7I7.intraIpc[0].difName = "R7I2R7I7"
**.R7I7.intraIpc[0].ipcAddress = "B"
**.R7I7.intraIpc[1].difName = "R7I5R7I7"
**.R7I7.intraIpc[1].ipcAddress = "B"
**.R7I7.intraIpc[2].difName = "R7I6R7I7"
**.R7I7.intraIpc[2].ipcAddress = "B"
**.R7I8.intraIpc[0].difName = "R7I1R7I8"
**.R7I8.intraIpc[0].ipcAddress = "B"
**.R7I8.intraIpc[1].difName = "R7I5R7I8"
**.R7I8.intraIpc[1].ipcAddress = "B"
**.R8I1.intraIpc[0].difName = "R8I1R8I4"
**.R8I1.intraIpc[0].ipcAddress = "A"
**.R8I1.intraIpc[1].difName = "R8I1R8I7"
**.R8I1.intraIpc[1].ipcAddress = "A"
**.R8I1.intraIpc[2].difName = "R8I1R8I8"
**.R8I1.intraIpc[2].ipcAddress = "A"
**.R8I1.intraIpc[3].difName = "R8I1R8Ib"
**.R8I1.intraIpc[3].ipcAddress = "A"
**.R8I2.intraIpc[0].difName = "R8I2R8I5"
**.R8I2.intraIpc[0].ipcAddress = "A"
**.R8I2.intraIpc[1].difName = "R8I2R8I9"
**.R8I2.intraIpc[1].ipcAddress = "A"
**.R8I3.intraIpc[0].difName = "R8I3R8I7"
**.R8I3.intraIpc[0].ipcAddress = "A"
**.R8I3.intraIpc[1].difName = "R8I3R8I9"
**.R8I3.intraIpc[1].ipcAddress = "A"
**.R8I4.intraIpc[0].difName = "R8I1R8I4"
**.R8I4.intraIpc[0].ipcAddress = "B"
**.R8I4.intraIpc[1].difName = "R8I4R8I8"
**.R8I4.intraIpc[1].ipcAddress = "A"
**.R8I5.intraIpc[0].difName = "R8I2R8I5"
**.R8I5.intraIpc[0].ipcAddress = "B"
**.R8I5.intraIpc[1].difName = "R8I5R8I7"
**.R8I5.intraIpc[1].ipcAddress = "A"
**.R8I5.intraIpc[2].difName = "R8I5R8I9"
**.R8I5.intraIpc[2].ipcAddress = "A"
**.R8I6.intraIpc[0].difName = "R8I6R8I7"
**.R8I6.intraIpc[0].ipcAddress = "A"
**.R8I6.intraIpc[1].difName = "R8I6R8I9"
**.R8I6.intraIpc[1].ipcAddress = "A"
**.R8I7.intraIpc[0].difName = "R8I1R8I7"
**.R8I7.intraIpc[0].ipcAddress = "B"
**.R8I7.intraIpc[1].difName = "R8I3R8I7"
**.R8I7.intraIpc[1].ipcAddress = "B"
**.R8I7.intraIpc[2].difName = "R8I5R8I7"
**.R8I7.intraIpc[2].ipcAddress = "B"
**.R8I7.intraIpc[3].difName = "R8I6R8I7"
**.R8I7.intraIpc[3].ipcAddress = "B"
**.R8I7.intraIpc[4].difName = "R8I7R8Ia"
**.R8I7.intraIpc[4].ipcAddress = "A"
**.R8I7.intraIpc[5].difName = "R8I7R8Ib"
**.R8I7.intraIpc[5].ipcAddress = "A"
**.R8I8.intraIpc[0].difName = "R8I1R8I8"
**.R8I8.intraIpc[0].ipcAddress = "B"
**.R8I8.intraIpc[1].difName = "R8I4R8I8"
**.R8I8.intraIpc[1].ipcAddress = "B"
**.R8I9.intraIpc[0].difName = "R8I2R8I9"
**.R8I9.intraIpc[0].ipcAddress = "B"
**.R8I9.intraIpc[1].difName = "R8I3R8I9"
**.R8I9.intraIpc[1].ipcAddress = "B"
**.R8I9.intraIpc[2].difName = "R8I5R8I9"
**.R8I9.intraIpc[2].ipcAddress = "B"
**.R8I9.intraIpc[3].difName = "R8I6R8I9"
**.R8I9.intraIpc[3].ipcAddress = "B"
**.R8Ia.intraIpc[0].difName = "R8I7R8Ia"
**.R8Ia.intraIpc[0].ipcAddress = "B"
**.R8Ia.intraIpc[1].difName = "R8IaR8Ib"
**.R8Ia.intraIpc[1].ipcAddress = "A"
**.R8Ib.intraIpc[0].difName = "R8I1R8Ib"
**.R8Ib.intraIpc[0].ipcAddress = "B"
**.R8Ib.intraIpc[1].difName = "R8I7R8Ib"
**.R8Ib.intraIpc[1].ipcAddress = "B"
**.R8Ib.intraIpc[2].difName = "R8IaR8Ib"
**.R8Ib.intraIpc[2].ipcAddress = "B"
**.R9I1.intraIpc[0].difName = "R9I1R9I2"
**.R9I1.intraIpc[0].ipcAddress = "A"
**.R9I2.intraIpc[0].difName = "R9I1R9I2"
**.R9I2.intraIpc[0].ipcAddress = "B"
**.R9I2.intraIpc[1].difName = "R9I2R9I3"
**.R9I2.intraIpc[1].ipcAddress = "A"
**.R9I2.intraIpc[2].difName = "R9I2R9I6"
**.R9I2.intraIpc[2].ipcAddress = "A"
**.R9I3.intraIpc[0].difName = "R9I2R9I3"
**.R9I3.intraIpc[0].ipcAddress = "B"
**.R9I3.intraIpc[1].difName = "R9I3R9I6"
**.R9I3.intraIpc[1].ipcAddress = "A"
**.R9I3.intraIpc[2].difName = "R9I3R9I9"
**.R9I3.intraIpc[2].ipcAddress = "A"
**.R9I4.intraIpc[0].difName = "R9I4R9I5"
**.R9I4.intraIpc[0].ipcAddress = "A"
**.R9I4.intraIpc[1].difName = "R9I4R9I7"
**.R9I4.intraIpc[1].ipcAddress = "A"
**.R9I4.intraIpc[2].difName = "R9I4R9I8"
**.R9I4.intraIpc[2].ipcAddress = "A"
**.R9I5.intraIpc[0].difName = "R9I4R9I5"
**.R9I5.intraIpc[0].ipcAddress = "B"
**.R9I5.intraIpc[1].difName = "R9I5R9I6"
**.R9I5.intraIpc[1].ipcAddress = "A"
**.R9I5.intraIpc[2].difName = "R9I5R9I7"
**.R9I5.intraIpc[2].ipcAddress = "A"
**.R9I6.intraIpc[0].difName = "R9I2R9I6"
**.R9I6.intraIpc[0].ipcAddress = "B"
**.R9I6.intraIpc[1].difName = "R9I3R9I6"
**.R9I6.intraIpc[1].ipcAddress = "B"
**.R9I6.intraIpc[2].difName = "R9I5R9I6"
**.R9I6.intraIpc[2].ipcAddress = "B"
**.R9I6.intraIpc[3].difName = "R9I6R9I8"
**.R9I6.intraIpc[3].ipcAddress = "A"
**.R9I6.intraIpc[4].difName = "R9I6R9I9"
**.R9I6.intraIpc[4].ipcAddress = "A"
**.R9I7.intraIpc[0].difName = "R9I4R9I7"
**.R9I7.intraIpc[0].ipcAddress = "B"
**.R9I7.intraIpc[1].difName = "R9I5R9I7"
**.R9I7.intraIpc[1].ipcAddress = "B"
**.R9I7.intraIpc[2].difName = "R9I7R9I8"
**.R9I7.intraIpc[2].ipcAddress = "A"
**.R9I8.intraIpc[0].difName = "R9I4R9I8"
**.R9I8.intraIpc[0].ipcAddress = "B"
**.R9I8.intraIpc[1].difName = "R9I6R9I8"
**.R9I8.intraIpc[1].ipcAddress = "B"
**.R9I8.intraIpc[2].difName = "R9I7R9I8"
**.R9I8.intraIpc[2].ipcAddress = "B"
**.R9I9.intraIpc[0].difName = "R9I3R9I9"
**.R9I9.intraIpc[0].ipcAddress = "B"
**.R9I9.intraIpc[1].difName = "R9I6R9I9"
**.R9I9.intraIpc[1].ipcAddress = "B"
**.RaI1.intraIpc[0].difName = "RaI1RaI6"
**.RaI1.intraIpc[0].ipcAddress = "A"
**.RaI1.intraIpc[1].difName = "RaI1RaI7"
**.RaI1.intraIpc[1].ipcAddress = "A"
**.RaI2.intraIpc[0].difName = "RaI2RaI7"
**.RaI2.intraIpc[0].ipcAddress = "A"
**.RaI2.intraIpc[1].difName = "RaI2RaI8"
**.RaI2.intraIpc[1].ipcAddress = "A"
**.RaI2.intraIpc[2].difName = "RaI2RaI9"
**.RaI2.intraIpc[2].ipcAddress = "A"
**.RaI3.intraIpc[0].difName = "RaI3RaI5"
**.RaI3.intraIpc[0].ipcAddress = "A"
**.RaI3.intraIpc[1].difName = "RaI3RaI6"
**.RaI3.intraIpc[1].ipcAddress = "A"
**.RaI3.intraIpc[2].difName = "RaI3RaI9"
**.RaI3.intraIpc[2].ipcAddress = "A"
**.RaI4.intraIpc[0].difName = "RaI4RaI6"
**.RaI4.intraIpc[0].ipcAddress = "A"
**.RaI5.intraIpc[0].difName = "RaI3RaI5"
**.RaI5.intraIpc[0].ipcAddress = "B"
**.RaI5.intraIpc[1].difName = "RaI5RaI6"
**.RaI5.intraIpc[1].ipcAddress = "A"
**.RaI5.intraIpc[2].difName = "RaI5RaI9"
**.RaI5.intraIpc[2].ipcAddress = "A"
**.RaI6.intraIpc[0].difName = "RaI1RaI6"
**.RaI6.intraIpc[0].ipcAddress = "B"
**.RaI6.intraIpc[1].difName = "RaI3RaI6"
**.RaI6.intraIpc[1].ipcAddress = "B"
**.RaI6.intraIpc[2].difName = "RaI4RaI6"
**.RaI6.intraIpc[2].ipcAddress = "B"
**.RaI6.intraIpc[3].difName = "RaI5RaI6"
**.RaI6.intraIpc[3].ipcAddress = "B"
**.RaI6.intraIpc[4].difName = "RaI6RaI9"
**.RaI6.intraIpc[4].ipcAddress = "A"
**.RaI7.intraIpc[0].difName = "RaI1RaI7"
**.RaI7.intraIpc[0].ipcAddress = "B"
**.RaI7.intraIpc[1].difName = "RaI2RaI7"
**.RaI7.intraIpc[1].ipcAddress = "B"
**.RaI7.intraIpc[2].difName = "RaI7RaI9"
**.RaI7.intraIpc[2].ipcAddress = "A"
**.RaI8.intraIpc[0].difName = "RaI2RaI8"
**.RaI8.intraIpc[0].ipcAddress = "B"
**.RaI9.intraIpc[0].difName = "RaI2RaI9"
**.RaI9.intraIpc[0].ipcAddress = "B"
**.RaI9.intraIpc[1].difName = "RaI3RaI9"
**.RaI9.intraIpc[1].ipcAddress = "B"
**.RaI9.intraIpc[2].difName = "RaI5RaI9"
**.RaI9.intraIpc[2].ipcAddress = "B"
**.RaI9.intraIpc[3].difName = "RaI6RaI9"
**.RaI9.intraIpc[3].ipcAddress = "B"
**.RaI9.intraIpc[4].difName = "RaI7RaI9"
**.RaI9.intraIpc[4].ipcAddress = "B"

#Inter
**.R1I3.interIpc[0].difName = "R1I3R6I4"
**.R1I3.interIpc[0].ipcAddress = "A"
**.R1I3.interIpc[1].difName = "R1I3R6Ib"
**.R1I3.interIpc[1].ipcAddress = "A"
**.R1I9.interIpc[0].difName = "R1I9R6I4"
**.R1I9.interIpc[0].ipcAddress = "A"
**.R2I8.interIpc[0].difName = "R2I8R5Ib"
**.R2I8.interIpc[0].ipcAddress = "A"
**.R2Ib.interIpc[0].difName = "R2IbR5I1"
**.R2Ib.interIpc[0].ipcAddress = "A"
**.R2Ib.interIpc[1].difName = "R2IbR5I8"
**.R2Ib.interIpc[1].ipcAddress = "A"
**.R3I5.interIpc[0].difName = "R3I5R7I7"
**.R3I5.interIpc[0].ipcAddress = "A"
**.R3I5.interIpc[1].difName = "R3I5R9I8"
**.R3I5.interIpc[1].ipcAddress = "A"
**.R3I6.interIpc[0].difName = "R3I6R7I7"
**.R3I6.interIpc[0].ipcAddress = "A"
**.R3I6.interIpc[1].difName = "R3I6R7I8"
**.R3I6.interIpc[1].ipcAddress = "A"
**.R3I6.interIpc[2].difName = "R3I6R9I6"
**.R3I6.interIpc[2].ipcAddress = "A"
**.R4I4.interIpc[0].difName = "R4I4R5Ib"
**.R4I4.interIpc[0].ipcAddress = "A"
**.R4I4.interIpc[1].difName = "R4I4R6I4"
**.R4I4.interIpc[1].ipcAddress = "A"
**.R4I4.interIpc[2].difName = "R4I4R6Ib"
**.R4I4.interIpc[2].ipcAddress = "A"
**.R4I7.interIpc[0].difName = "R4I7R5Ib"
**.R4I7.interIpc[0].ipcAddress = "A"
**.R5I1.interIpc[0].difName = "R2IbR5I1"
**.R5I1.interIpc[0].ipcAddress = "B"
**.R5I1.interIpc[1].difName = "R5I1R6I4"
**.R5I1.interIpc[1].ipcAddress = "A"
**.R5I1.interIpc[2].difName = "R5I1R8I8"
**.R5I1.interIpc[2].ipcAddress = "A"
**.R5I1.interIpc[3].difName = "R5I1R9I6"
**.R5I1.interIpc[3].ipcAddress = "A"
**.R5I8.interIpc[0].difName = "R2IbR5I8"
**.R5I8.interIpc[0].ipcAddress = "B"
**.R5I8.interIpc[1].difName = "R5I8R8I8"
**.R5I8.interIpc[1].ipcAddress = "A"
**.R5I8.interIpc[2].difName = "R5I8R9I8"
**.R5I8.interIpc[2].ipcAddress = "A"
**.R5Ib.interIpc[0].difName = "R2I8R5Ib"
**.R5Ib.interIpc[0].ipcAddress = "B"
**.R5Ib.interIpc[1].difName = "R4I4R5Ib"
**.R5Ib.interIpc[1].ipcAddress = "B"
**.R5Ib.interIpc[2].difName = "R4I7R5Ib"
**.R5Ib.interIpc[2].ipcAddress = "B"
**.R5Ib.interIpc[3].difName = "R5IbR6I4"
**.R5Ib.interIpc[3].ipcAddress = "A"
**.R5Ib.interIpc[4].difName = "R5IbR6Ib"
**.R5Ib.interIpc[4].ipcAddress = "A"
**.R5Ib.interIpc[5].difName = "R5IbR9I8"
**.R5Ib.interIpc[5].ipcAddress = "A"
**.R6I4.interIpc[0].difName = "R1I3R6I4"
**.R6I4.interIpc[0].ipcAddress = "B"
**.R6I4.interIpc[1].difName = "R1I9R6I4"
**.R6I4.interIpc[1].ipcAddress = "B"
**.R6I4.interIpc[2].difName = "R4I4R6I4"
**.R6I4.interIpc[2].ipcAddress = "B"
**.R6I4.interIpc[3].difName = "R5I1R6I4"
**.R6I4.interIpc[3].ipcAddress = "B"
**.R6I4.interIpc[4].difName = "R5IbR6I4"
**.R6I4.interIpc[4].ipcAddress = "B"
**.R6I4.interIpc[5].difName = "R6I4R7I2"
**.R6I4.interIpc[5].ipcAddress = "A"
**.R6I4.interIpc[6].difName = "R6I4R7I7"
**.R6I4.interIpc[6].ipcAddress = "A"
**.R6I4.interIpc[7].difName = "R6I4R7I8"
**.R6I4.interIpc[7].ipcAddress = "A"
**.R6I4.interIpc[8].difName = "R6I4RaI2"
**.R6I4.interIpc[8].ipcAddress = "A"
**.R6I4.interIpc[9].difName = "R6I4RaI9"
**.R6I4.interIpc[9].ipcAddress = "A"
**.R6Ib.interIpc[0].difName = "R1I3R6Ib"
**.R6Ib.interIpc[0].ipcAddress = "B"
**.R6Ib.interIpc[1].difName = "R4I4R6Ib"
**.R6Ib.interIpc[1].ipcAddress = "B"
**.R6Ib.interIpc[2].difName = "R5IbR6Ib"
**.R6Ib.interIpc[2].ipcAddress = "B"
**.R6Ib.interIpc[3].difName = "R6IbR8I5"
**.R6Ib.interIpc[3].ipcAddress = "A"
**.R6Ib.interIpc[4].difName = "R6IbR8I8"
**.R6Ib.interIpc[4].ipcAddress = "A"
**.R6Ib.interIpc[5].difName = "R6IbR8Ia"
**.R6Ib.interIpc[5].ipcAddress = "A"
**.R6Ib.interIpc[6].difName = "R6IbRaI9"
**.R6Ib.interIpc[6].ipcAddress = "A"
**.R7I2.interIpc[0].difName = "R6I4R7I2"
**.R7I2.interIpc[0].ipcAddress = "B"
**.R7I2.interIpc[1].difName = "R7I2R9I8"
**.R7I2.interIpc[1].ipcAddress = "A"
**.R7I7.interIpc[0].difName = "R3I5R7I7"
**.R7I7.interIpc[0].ipcAddress = "B"
**.R7I7.interIpc[1].difName = "R3I6R7I7"
**.R7I7.interIpc[1].ipcAddress = "B"
**.R7I7.interIpc[2].difName = "R6I4R7I7"
**.R7I7.interIpc[2].ipcAddress = "B"
**.R7I7.interIpc[3].difName = "R7I7R9I8"
**.R7I7.interIpc[3].ipcAddress = "A"
**.R7I8.interIpc[0].difName = "R3I6R7I8"
**.R7I8.interIpc[0].ipcAddress = "B"
**.R7I8.interIpc[1].difName = "R6I4R7I8"
**.R7I8.interIpc[1].ipcAddress = "B"