[General]
network = randPrefNet

sim-time-limit =  5min


**.relayIpc.difName = "DC"
**.R1I1.relayIpc.ipcAddress = "1.1"
**.R1I1.ipcProcess[0].difName = "1.1X1.8"
**.R1I1.ipcProcess[0].ipcAddress = "A"
**.R1I1.ipcProcess[1].difName = "1.1X1.d"
**.R1I1.ipcProcess[1].ipcAddress = "A"
**.R1I1.ipcProcess[2].difName = "1.1X1.e"
**.R1I1.ipcProcess[2].ipcAddress = "A"
**.R1I1.ipcProcess[3].difName = "1.1X4.d"
**.R1I1.ipcProcess[3].ipcAddress = "A"
**.R1I1.ipcProcess[4].difName = "1.1Xb.d"
**.R1I1.ipcProcess[4].ipcAddress = "A"
**.R1I1.ipcProcess[5].difName = "1.1Xd.3"
**.R1I1.ipcProcess[5].ipcAddress = "A"
**.R1I2.relayIpc.ipcAddress = "1.2"
**.R1I2.ipcProcess[0].difName = "1.2X1.4"
**.R1I2.ipcProcess[0].ipcAddress = "A"
**.R1I2.ipcProcess[1].difName = "1.2X1.5"
**.R1I2.ipcProcess[1].ipcAddress = "A"
**.R1I2.ipcProcess[2].difName = "1.2X1.7"
**.R1I2.ipcProcess[2].ipcAddress = "A"
**.R1I2.ipcProcess[3].difName = "1.2X1.b"
**.R1I2.ipcProcess[3].ipcAddress = "A"
**.R1I2.ipcProcess[4].difName = "1.2X1.c"
**.R1I2.ipcProcess[4].ipcAddress = "A"
**.R1I2.ipcProcess[5].difName = "1.2Xb.3"
**.R1I2.ipcProcess[5].ipcAddress = "A"
**.R1I3.relayIpc.ipcAddress = "1.3"
**.R1I3.ipcProcess[0].difName = "1.3X1.4"
**.R1I3.ipcProcess[0].ipcAddress = "A"
**.R1I3.ipcProcess[1].difName = "1.3X1.6"
**.R1I3.ipcProcess[1].ipcAddress = "A"
**.R1I3.ipcProcess[2].difName = "1.3X1.a"
**.R1I3.ipcProcess[2].ipcAddress = "A"
**.R1I3.ipcProcess[3].difName = "1.3X1.b"
**.R1I3.ipcProcess[3].ipcAddress = "A"
**.R1I3.ipcProcess[4].difName = "1.3X1.d"
**.R1I3.ipcProcess[4].ipcAddress = "A"
**.R1I4.relayIpc.ipcAddress = "1.4"
**.R1I4.ipcProcess[0].difName = "1.2X1.4"
**.R1I4.ipcProcess[0].ipcAddress = "B"
**.R1I4.ipcProcess[1].difName = "1.3X1.4"
**.R1I4.ipcProcess[1].ipcAddress = "B"
**.R1I4.ipcProcess[2].difName = "1.4X1.b"
**.R1I4.ipcProcess[2].ipcAddress = "A"
**.R1I4.ipcProcess[3].difName = "1.4X1.c"
**.R1I4.ipcProcess[3].ipcAddress = "A"
**.R1I4.ipcProcess[4].difName = "1.4X1.d"
**.R1I4.ipcProcess[4].ipcAddress = "A"
**.R1I4.ipcProcess[5].difName = "1.4X1.e"
**.R1I4.ipcProcess[5].ipcAddress = "A"
**.R1I5.relayIpc.ipcAddress = "1.5"
**.R1I5.ipcProcess[0].difName = "1.2X1.5"
**.R1I5.ipcProcess[0].ipcAddress = "B"
**.R1I5.ipcProcess[1].difName = "1.5X1.6"
**.R1I5.ipcProcess[1].ipcAddress = "A"
**.R1I5.ipcProcess[2].difName = "1.5X1.8"
**.R1I5.ipcProcess[2].ipcAddress = "A"
**.R1I5.ipcProcess[3].difName = "1.5X1.d"
**.R1I5.ipcProcess[3].ipcAddress = "A"
**.R1I6.relayIpc.ipcAddress = "1.6"
**.R1I6.ipcProcess[0].difName = "1.3X1.6"
**.R1I6.ipcProcess[0].ipcAddress = "B"
**.R1I6.ipcProcess[1].difName = "1.5X1.6"
**.R1I6.ipcProcess[1].ipcAddress = "B"
**.R1I6.ipcProcess[2].difName = "1.6X1.8"
**.R1I6.ipcProcess[2].ipcAddress = "A"
**.R1I6.ipcProcess[3].difName = "1.6X1.a"
**.R1I6.ipcProcess[3].ipcAddress = "A"
**.R1I6.ipcProcess[4].difName = "1.6X4.2"
**.R1I6.ipcProcess[4].ipcAddress = "A"
**.R1I6.ipcProcess[5].difName = "1.6Xd.3"
**.R1I6.ipcProcess[5].ipcAddress = "A"
**.R1I7.relayIpc.ipcAddress = "1.7"
**.R1I7.ipcProcess[0].difName = "1.2X1.7"
**.R1I7.ipcProcess[0].ipcAddress = "B"
**.R1I8.relayIpc.ipcAddress = "1.8"
**.R1I8.ipcProcess[0].difName = "1.1X1.8"
**.R1I8.ipcProcess[0].ipcAddress = "B"
**.R1I8.ipcProcess[1].difName = "1.5X1.8"
**.R1I8.ipcProcess[1].ipcAddress = "B"
**.R1I8.ipcProcess[2].difName = "1.6X1.8"
**.R1I8.ipcProcess[2].ipcAddress = "B"
**.R1I8.ipcProcess[3].difName = "1.8X1.b"
**.R1I8.ipcProcess[3].ipcAddress = "A"
**.R1I8.ipcProcess[4].difName = "1.8X1.c"
**.R1I8.ipcProcess[4].ipcAddress = "A"
**.R1I8.ipcProcess[5].difName = "1.8X1.d"
**.R1I8.ipcProcess[5].ipcAddress = "A"
**.R1I8.ipcProcess[6].difName = "1.8X1.e"
**.R1I8.ipcProcess[6].ipcAddress = "A"
**.R1I8.ipcProcess[7].difName = "1.8Xd.3"
**.R1I8.ipcProcess[7].ipcAddress = "A"
**.R1I9.relayIpc.ipcAddress = "1.9"
**.R1I9.ipcProcess[0].difName = "1.9X1.a"
**.R1I9.ipcProcess[0].ipcAddress = "A"
**.R1Ia.relayIpc.ipcAddress = "1.a"
**.R1Ia.ipcProcess[0].difName = "1.3X1.a"
**.R1Ia.ipcProcess[0].ipcAddress = "B"
**.R1Ia.ipcProcess[1].difName = "1.6X1.a"
**.R1Ia.ipcProcess[1].ipcAddress = "B"
**.R1Ia.ipcProcess[2].difName = "1.9X1.a"
**.R1Ia.ipcProcess[2].ipcAddress = "B"
**.R1Ib.relayIpc.ipcAddress = "1.b"
**.R1Ib.ipcProcess[0].difName = "1.2X1.b"
**.R1Ib.ipcProcess[0].ipcAddress = "B"
**.R1Ib.ipcProcess[1].difName = "1.3X1.b"
**.R1Ib.ipcProcess[1].ipcAddress = "B"
**.R1Ib.ipcProcess[2].difName = "1.4X1.b"
**.R1Ib.ipcProcess[2].ipcAddress = "B"
**.R1Ib.ipcProcess[3].difName = "1.8X1.b"
**.R1Ib.ipcProcess[3].ipcAddress = "B"
**.R1Ic.relayIpc.ipcAddress = "1.c"
**.R1Ic.ipcProcess[0].difName = "1.2X1.c"
**.R1Ic.ipcProcess[0].ipcAddress = "B"
**.R1Ic.ipcProcess[1].difName = "1.4X1.c"
**.R1Ic.ipcProcess[1].ipcAddress = "B"
**.R1Ic.ipcProcess[2].difName = "1.8X1.c"
**.R1Ic.ipcProcess[2].ipcAddress = "B"
**.R1Ic.ipcProcess[3].difName = "1.cX1.e"
**.R1Ic.ipcProcess[3].ipcAddress = "A"
**.R1Id.relayIpc.ipcAddress = "1.d"
**.R1Id.ipcProcess[0].difName = "1.1X1.d"
**.R1Id.ipcProcess[0].ipcAddress = "B"
**.R1Id.ipcProcess[1].difName = "1.3X1.d"
**.R1Id.ipcProcess[1].ipcAddress = "B"
**.R1Id.ipcProcess[2].difName = "1.4X1.d"
**.R1Id.ipcProcess[2].ipcAddress = "B"
**.R1Id.ipcProcess[3].difName = "1.5X1.d"
**.R1Id.ipcProcess[3].ipcAddress = "B"
**.R1Id.ipcProcess[4].difName = "1.8X1.d"
**.R1Id.ipcProcess[4].ipcAddress = "B"
**.R1Ie.relayIpc.ipcAddress = "1.e"
**.R1Ie.ipcProcess[0].difName = "1.1X1.e"
**.R1Ie.ipcProcess[0].ipcAddress = "B"
**.R1Ie.ipcProcess[1].difName = "1.4X1.e"
**.R1Ie.ipcProcess[1].ipcAddress = "B"
**.R1Ie.ipcProcess[2].difName = "1.8X1.e"
**.R1Ie.ipcProcess[2].ipcAddress = "B"
**.R1Ie.ipcProcess[3].difName = "1.cX1.e"
**.R1Ie.ipcProcess[3].ipcAddress = "B"
**.R2I1.relayIpc.ipcAddress = "2.1"
**.R2I1.ipcProcess[0].difName = "2.1X2.2"
**.R2I1.ipcProcess[0].ipcAddress = "A"
**.R2I1.ipcProcess[1].difName = "2.1X2.3"
**.R2I1.ipcProcess[1].ipcAddress = "A"
**.R2I1.ipcProcess[2].difName = "2.1X2.a"
**.R2I1.ipcProcess[2].ipcAddress = "A"
**.R2I1.ipcProcess[3].difName = "2.1X2.c"
**.R2I1.ipcProcess[3].ipcAddress = "A"
**.R2I2.relayIpc.ipcAddress = "2.2"
**.R2I2.ipcProcess[0].difName = "2.1X2.2"
**.R2I2.ipcProcess[0].ipcAddress = "B"
**.R2I2.ipcProcess[1].difName = "2.2X2.3"
**.R2I2.ipcProcess[1].ipcAddress = "A"
**.R2I2.ipcProcess[2].difName = "2.2X2.5"
**.R2I2.ipcProcess[2].ipcAddress = "A"
**.R2I2.ipcProcess[3].difName = "2.2X2.7"
**.R2I2.ipcProcess[3].ipcAddress = "A"
**.R2I2.ipcProcess[4].difName = "2.2X2.a"
**.R2I2.ipcProcess[4].ipcAddress = "A"
**.R2I2.ipcProcess[5].difName = "2.2X5.10"
**.R2I2.ipcProcess[5].ipcAddress = "A"
**.R2I2.ipcProcess[6].difName = "2.2X5.d"
**.R2I2.ipcProcess[6].ipcAddress = "A"
**.R2I2.ipcProcess[7].difName = "2.2X7.c"
**.R2I2.ipcProcess[7].ipcAddress = "A"
**.R2I3.relayIpc.ipcAddress = "2.3"
**.R2I3.ipcProcess[0].difName = "2.1X2.3"
**.R2I3.ipcProcess[0].ipcAddress = "B"
**.R2I3.ipcProcess[1].difName = "2.2X2.3"
**.R2I3.ipcProcess[1].ipcAddress = "B"
**.R2I3.ipcProcess[2].difName = "2.3X2.8"
**.R2I3.ipcProcess[2].ipcAddress = "A"
**.R2I3.ipcProcess[3].difName = "2.3X2.a"
**.R2I3.ipcProcess[3].ipcAddress = "A"
**.R2I3.ipcProcess[4].difName = "2.3X2.b"
**.R2I3.ipcProcess[4].ipcAddress = "A"
**.R2I4.relayIpc.ipcAddress = "2.4"
**.R2I4.ipcProcess[0].difName = "2.4X2.6"
**.R2I4.ipcProcess[0].ipcAddress = "A"
**.R2I4.ipcProcess[1].difName = "2.4X2.9"
**.R2I4.ipcProcess[1].ipcAddress = "A"
**.R2I5.relayIpc.ipcAddress = "2.5"
**.R2I5.ipcProcess[0].difName = "2.2X2.5"
**.R2I5.ipcProcess[0].ipcAddress = "B"
**.R2I5.ipcProcess[1].difName = "2.5X2.7"
**.R2I5.ipcProcess[1].ipcAddress = "A"
**.R2I5.ipcProcess[2].difName = "2.5X2.8"
**.R2I5.ipcProcess[2].ipcAddress = "A"
**.R2I5.ipcProcess[3].difName = "2.5X2.9"
**.R2I5.ipcProcess[3].ipcAddress = "A"
**.R2I5.ipcProcess[4].difName = "2.5X2.b"
**.R2I5.ipcProcess[4].ipcAddress = "A"
**.R2I5.ipcProcess[5].difName = "2.5X2.c"
**.R2I5.ipcProcess[5].ipcAddress = "A"
**.R2I6.relayIpc.ipcAddress = "2.6"
**.R2I6.ipcProcess[0].difName = "2.4X2.6"
**.R2I6.ipcProcess[0].ipcAddress = "B"
**.R2I6.ipcProcess[1].difName = "2.6X2.8"
**.R2I6.ipcProcess[1].ipcAddress = "A"
**.R2I6.ipcProcess[2].difName = "2.6X2.b"
**.R2I6.ipcProcess[2].ipcAddress = "A"
**.R2I6.ipcProcess[3].difName = "2.6X7.c"
**.R2I6.ipcProcess[3].ipcAddress = "A"
**.R2I6.ipcProcess[4].difName = "2.6Xf.7"
**.R2I6.ipcProcess[4].ipcAddress = "A"
**.R2I7.relayIpc.ipcAddress = "2.7"
**.R2I7.ipcProcess[0].difName = "2.2X2.7"
**.R2I7.ipcProcess[0].ipcAddress = "B"
**.R2I7.ipcProcess[1].difName = "2.5X2.7"
**.R2I7.ipcProcess[1].ipcAddress = "B"
**.R2I7.ipcProcess[2].difName = "2.7X2.9"
**.R2I7.ipcProcess[2].ipcAddress = "A"
**.R2I7.ipcProcess[3].difName = "2.7X2.a"
**.R2I7.ipcProcess[3].ipcAddress = "A"
**.R2I8.relayIpc.ipcAddress = "2.8"
**.R2I8.ipcProcess[0].difName = "2.3X2.8"
**.R2I8.ipcProcess[0].ipcAddress = "B"
**.R2I8.ipcProcess[1].difName = "2.5X2.8"
**.R2I8.ipcProcess[1].ipcAddress = "B"
**.R2I8.ipcProcess[2].difName = "2.6X2.8"
**.R2I8.ipcProcess[2].ipcAddress = "B"
**.R2I8.ipcProcess[3].difName = "2.8Xf.7"
**.R2I8.ipcProcess[3].ipcAddress = "A"
**.R2I9.relayIpc.ipcAddress = "2.9"
**.R2I9.ipcProcess[0].difName = "2.4X2.9"
**.R2I9.ipcProcess[0].ipcAddress = "B"
**.R2I9.ipcProcess[1].difName = "2.5X2.9"
**.R2I9.ipcProcess[1].ipcAddress = "B"
**.R2I9.ipcProcess[2].difName = "2.7X2.9"
**.R2I9.ipcProcess[2].ipcAddress = "B"
**.R2I9.ipcProcess[3].difName = "2.9X2.a"
**.R2I9.ipcProcess[3].ipcAddress = "A"
**.R2I9.ipcProcess[4].difName = "2.9X2.b"
**.R2I9.ipcProcess[4].ipcAddress = "A"
**.R2Ia.relayIpc.ipcAddress = "2.a"
**.R2Ia.ipcProcess[0].difName = "2.1X2.a"
**.R2Ia.ipcProcess[0].ipcAddress = "B"
**.R2Ia.ipcProcess[1].difName = "2.2X2.a"
**.R2Ia.ipcProcess[1].ipcAddress = "B"
**.R2Ia.ipcProcess[2].difName = "2.3X2.a"
**.R2Ia.ipcProcess[2].ipcAddress = "B"
**.R2Ia.ipcProcess[3].difName = "2.7X2.a"
**.R2Ia.ipcProcess[3].ipcAddress = "B"
**.R2Ia.ipcProcess[4].difName = "2.9X2.a"
**.R2Ia.ipcProcess[4].ipcAddress = "B"
**.R2Ib.relayIpc.ipcAddress = "2.b"
**.R2Ib.ipcProcess[0].difName = "2.3X2.b"
**.R2Ib.ipcProcess[0].ipcAddress = "B"
**.R2Ib.ipcProcess[1].difName = "2.5X2.b"
**.R2Ib.ipcProcess[1].ipcAddress = "B"
**.R2Ib.ipcProcess[2].difName = "2.6X2.b"
**.R2Ib.ipcProcess[2].ipcAddress = "B"
**.R2Ib.ipcProcess[3].difName = "2.9X2.b"
**.R2Ib.ipcProcess[3].ipcAddress = "B"
**.R2Ic.relayIpc.ipcAddress = "2.c"
**.R2Ic.ipcProcess[0].difName = "2.1X2.c"
**.R2Ic.ipcProcess[0].ipcAddress = "B"
**.R2Ic.ipcProcess[1].difName = "2.5X2.c"
**.R2Ic.ipcProcess[1].ipcAddress = "B"
**.R3I1.relayIpc.ipcAddress = "3.1"
**.R3I1.ipcProcess[0].difName = "3.1X3.4"
**.R3I1.ipcProcess[0].ipcAddress = "A"
**.R3I1.ipcProcess[1].difName = "3.1X3.7"
**.R3I1.ipcProcess[1].ipcAddress = "A"
**.R3I1.ipcProcess[2].difName = "3.1X3.8"
**.R3I1.ipcProcess[2].ipcAddress = "A"
**.R3I1.ipcProcess[3].difName = "3.1X3.f"
**.R3I1.ipcProcess[3].ipcAddress = "A"
**.R3I10.relayIpc.ipcAddress = "3.10"
**.R3I10.ipcProcess[0].difName = "3.10X3.2"
**.R3I10.ipcProcess[0].ipcAddress = "A"
**.R3I10.ipcProcess[1].difName = "3.10X3.4"
**.R3I10.ipcProcess[1].ipcAddress = "A"
**.R3I10.ipcProcess[2].difName = "3.10X3.8"
**.R3I10.ipcProcess[2].ipcAddress = "A"
**.R3I10.ipcProcess[3].difName = "3.10X3.9"
**.R3I10.ipcProcess[3].ipcAddress = "A"
**.R3I10.ipcProcess[4].difName = "3.10X3.a"
**.R3I10.ipcProcess[4].ipcAddress = "A"
**.R3I10.ipcProcess[5].difName = "3.10X3.d"
**.R3I10.ipcProcess[5].ipcAddress = "A"
**.R3I2.relayIpc.ipcAddress = "3.2"
**.R3I2.ipcProcess[0].difName = "3.10X3.2"
**.R3I2.ipcProcess[0].ipcAddress = "B"
**.R3I2.ipcProcess[1].difName = "3.2X3.5"
**.R3I2.ipcProcess[1].ipcAddress = "A"
**.R3I2.ipcProcess[2].difName = "3.2X3.7"
**.R3I2.ipcProcess[2].ipcAddress = "A"
**.R3I2.ipcProcess[3].difName = "3.2X3.a"
**.R3I2.ipcProcess[3].ipcAddress = "A"
**.R3I2.ipcProcess[4].difName = "3.2X3.c"
**.R3I2.ipcProcess[4].ipcAddress = "A"
**.R3I3.relayIpc.ipcAddress = "3.3"
**.R3I3.ipcProcess[0].difName = "3.3X3.4"
**.R3I3.ipcProcess[0].ipcAddress = "A"
**.R3I3.ipcProcess[1].difName = "3.3X3.c"
**.R3I3.ipcProcess[1].ipcAddress = "A"
**.R3I4.relayIpc.ipcAddress = "3.4"
**.R3I4.ipcProcess[0].difName = "3.1X3.4"
**.R3I4.ipcProcess[0].ipcAddress = "B"
**.R3I4.ipcProcess[1].difName = "3.10X3.4"
**.R3I4.ipcProcess[1].ipcAddress = "B"
**.R3I4.ipcProcess[2].difName = "3.3X3.4"
**.R3I4.ipcProcess[2].ipcAddress = "B"
**.R3I4.ipcProcess[3].difName = "3.4X3.8"
**.R3I4.ipcProcess[3].ipcAddress = "A"
**.R3I4.ipcProcess[4].difName = "3.4X3.d"
**.R3I4.ipcProcess[4].ipcAddress = "A"
**.R3I4.ipcProcess[5].difName = "3.4X3.e"
**.R3I4.ipcProcess[5].ipcAddress = "A"
**.R3I5.relayIpc.ipcAddress = "3.5"
**.R3I5.ipcProcess[0].difName = "3.2X3.5"
**.R3I5.ipcProcess[0].ipcAddress = "B"
**.R3I5.ipcProcess[1].difName = "3.5X3.a"
**.R3I5.ipcProcess[1].ipcAddress = "A"
**.R3I5.ipcProcess[2].difName = "3.5X3.d"
**.R3I5.ipcProcess[2].ipcAddress = "A"
**.R3I6.relayIpc.ipcAddress = "3.6"
**.R3I6.ipcProcess[0].difName = "3.6X3.7"
**.R3I6.ipcProcess[0].ipcAddress = "A"
**.R3I7.relayIpc.ipcAddress = "3.7"
**.R3I7.ipcProcess[0].difName = "3.1X3.7"
**.R3I7.ipcProcess[0].ipcAddress = "B"
**.R3I7.ipcProcess[1].difName = "3.2X3.7"
**.R3I7.ipcProcess[1].ipcAddress = "B"
**.R3I7.ipcProcess[2].difName = "3.6X3.7"
**.R3I7.ipcProcess[2].ipcAddress = "B"
**.R3I8.relayIpc.ipcAddress = "3.8"
**.R3I8.ipcProcess[0].difName = "3.1X3.8"
**.R3I8.ipcProcess[0].ipcAddress = "B"
**.R3I8.ipcProcess[1].difName = "3.10X3.8"
**.R3I8.ipcProcess[1].ipcAddress = "B"
**.R3I8.ipcProcess[2].difName = "3.4X3.8"
**.R3I8.ipcProcess[2].ipcAddress = "B"
**.R3I8.ipcProcess[3].difName = "3.8X3.b"
**.R3I8.ipcProcess[3].ipcAddress = "A"
**.R3I8.ipcProcess[4].difName = "3.8X3.f"
**.R3I8.ipcProcess[4].ipcAddress = "A"
**.R3I8.ipcProcess[5].difName = "3.8X4.b"
**.R3I8.ipcProcess[5].ipcAddress = "A"
**.R3I8.ipcProcess[6].difName = "3.8X8.1"
**.R3I8.ipcProcess[6].ipcAddress = "A"
**.R3I9.relayIpc.ipcAddress = "3.9"
**.R3I9.ipcProcess[0].difName = "3.10X3.9"
**.R3I9.ipcProcess[0].ipcAddress = "B"
**.R3I9.ipcProcess[1].difName = "3.9X3.a"
**.R3I9.ipcProcess[1].ipcAddress = "A"
**.R3I9.ipcProcess[2].difName = "3.9X3.b"
**.R3I9.ipcProcess[2].ipcAddress = "A"
**.R3I9.ipcProcess[3].difName = "3.9X3.d"
**.R3I9.ipcProcess[3].ipcAddress = "A"
**.R3Ia.relayIpc.ipcAddress = "3.a"
**.R3Ia.ipcProcess[0].difName = "3.10X3.a"
**.R3Ia.ipcProcess[0].ipcAddress = "B"
**.R3Ia.ipcProcess[1].difName = "3.2X3.a"
**.R3Ia.ipcProcess[1].ipcAddress = "B"
**.R3Ia.ipcProcess[2].difName = "3.5X3.a"
**.R3Ia.ipcProcess[2].ipcAddress = "B"
**.R3Ia.ipcProcess[3].difName = "3.9X3.a"
**.R3Ia.ipcProcess[3].ipcAddress = "B"
**.R3Ia.ipcProcess[4].difName = "3.aX3.b"
**.R3Ia.ipcProcess[4].ipcAddress = "A"
**.R3Ia.ipcProcess[5].difName = "3.aX3.e"
**.R3Ia.ipcProcess[5].ipcAddress = "A"
**.R3Ia.ipcProcess[6].difName = "3.aX5.8"
**.R3Ia.ipcProcess[6].ipcAddress = "A"
**.R3Ib.relayIpc.ipcAddress = "3.b"
**.R3Ib.ipcProcess[0].difName = "3.8X3.b"
**.R3Ib.ipcProcess[0].ipcAddress = "B"
**.R3Ib.ipcProcess[1].difName = "3.9X3.b"
**.R3Ib.ipcProcess[1].ipcAddress = "B"
**.R3Ib.ipcProcess[2].difName = "3.aX3.b"
**.R3Ib.ipcProcess[2].ipcAddress = "B"
**.R3Ib.ipcProcess[3].difName = "3.bX3.c"
**.R3Ib.ipcProcess[3].ipcAddress = "A"
**.R3Ic.relayIpc.ipcAddress = "3.c"
**.R3Ic.ipcProcess[0].difName = "3.2X3.c"
**.R3Ic.ipcProcess[0].ipcAddress = "B"
**.R3Ic.ipcProcess[1].difName = "3.3X3.c"
**.R3Ic.ipcProcess[1].ipcAddress = "B"
**.R3Ic.ipcProcess[2].difName = "3.bX3.c"
**.R3Ic.ipcProcess[2].ipcAddress = "B"
**.R3Ic.ipcProcess[3].difName = "3.cX4.5"
**.R3Ic.ipcProcess[3].ipcAddress = "A"
**.R3Ic.ipcProcess[4].difName = "3.cX5.10"
**.R3Ic.ipcProcess[4].ipcAddress = "A"
**.R3Ic.ipcProcess[5].difName = "3.cX8.8"
**.R3Ic.ipcProcess[5].ipcAddress = "A"
**.R3Ic.ipcProcess[6].difName = "3.cX8.c"
**.R3Ic.ipcProcess[6].ipcAddress = "A"
**.R3Id.relayIpc.ipcAddress = "3.d"
**.R3Id.ipcProcess[0].difName = "3.10X3.d"
**.R3Id.ipcProcess[0].ipcAddress = "B"
**.R3Id.ipcProcess[1].difName = "3.4X3.d"
**.R3Id.ipcProcess[1].ipcAddress = "B"
**.R3Id.ipcProcess[2].difName = "3.5X3.d"
**.R3Id.ipcProcess[2].ipcAddress = "B"
**.R3Id.ipcProcess[3].difName = "3.9X3.d"
**.R3Id.ipcProcess[3].ipcAddress = "B"
**.R3Id.ipcProcess[4].difName = "3.dX3.e"
**.R3Id.ipcProcess[4].ipcAddress = "A"
**.R3Id.ipcProcess[5].difName = "3.dX3.f"
**.R3Id.ipcProcess[5].ipcAddress = "A"
**.R3Ie.relayIpc.ipcAddress = "3.e"
**.R3Ie.ipcProcess[0].difName = "3.4X3.e"
**.R3Ie.ipcProcess[0].ipcAddress = "B"
**.R3Ie.ipcProcess[1].difName = "3.aX3.e"
**.R3Ie.ipcProcess[1].ipcAddress = "B"
**.R3Ie.ipcProcess[2].difName = "3.dX3.e"
**.R3Ie.ipcProcess[2].ipcAddress = "B"
**.R3Ie.ipcProcess[3].difName = "3.eX5.8"
**.R3Ie.ipcProcess[3].ipcAddress = "A"
**.R3If.relayIpc.ipcAddress = "3.f"
**.R3If.ipcProcess[0].difName = "3.1X3.f"
**.R3If.ipcProcess[0].ipcAddress = "B"
**.R3If.ipcProcess[1].difName = "3.8X3.f"
**.R3If.ipcProcess[1].ipcAddress = "B"
**.R3If.ipcProcess[2].difName = "3.dX3.f"
**.R3If.ipcProcess[2].ipcAddress = "B"
**.R4I1.relayIpc.ipcAddress = "4.1"
**.R4I1.ipcProcess[0].difName = "4.1X4.3"
**.R4I1.ipcProcess[0].ipcAddress = "A"
**.R4I1.ipcProcess[1].difName = "4.1X4.5"
**.R4I1.ipcProcess[1].ipcAddress = "A"
**.R4I1.ipcProcess[2].difName = "4.1X4.6"
**.R4I1.ipcProcess[2].ipcAddress = "A"
**.R4I1.ipcProcess[3].difName = "4.1X4.7"
**.R4I1.ipcProcess[3].ipcAddress = "A"
**.R4I1.ipcProcess[4].difName = "4.1X4.d"
**.R4I1.ipcProcess[4].ipcAddress = "A"
**.R4I1.ipcProcess[5].difName = "4.1X4.e"
**.R4I1.ipcProcess[5].ipcAddress = "A"
**.R4I2.relayIpc.ipcAddress = "4.2"
**.R4I2.ipcProcess[0].difName = "4.2X4.4"
**.R4I2.ipcProcess[0].ipcAddress = "A"
**.R4I2.ipcProcess[1].difName = "4.2X4.b"
**.R4I2.ipcProcess[1].ipcAddress = "A"
**.R4I2.ipcProcess[2].difName = "4.2X4.d"
**.R4I2.ipcProcess[2].ipcAddress = "A"
**.R4I2.ipcProcess[3].difName = "1.6X4.2"
**.R4I2.ipcProcess[3].ipcAddress = "B"
**.R4I2.ipcProcess[4].difName = "4.2X8.8"
**.R4I2.ipcProcess[4].ipcAddress = "A"
**.R4I3.relayIpc.ipcAddress = "4.3"
**.R4I3.ipcProcess[0].difName = "4.1X4.3"
**.R4I3.ipcProcess[0].ipcAddress = "B"
**.R4I3.ipcProcess[1].difName = "4.3X4.6"
**.R4I3.ipcProcess[1].ipcAddress = "A"
**.R4I3.ipcProcess[2].difName = "4.3X4.a"
**.R4I3.ipcProcess[2].ipcAddress = "A"
**.R4I3.ipcProcess[3].difName = "4.3X4.c"
**.R4I3.ipcProcess[3].ipcAddress = "A"
**.R4I4.relayIpc.ipcAddress = "4.4"
**.R4I4.ipcProcess[0].difName = "4.2X4.4"
**.R4I4.ipcProcess[0].ipcAddress = "B"
**.R4I4.ipcProcess[1].difName = "4.4X4.b"
**.R4I4.ipcProcess[1].ipcAddress = "A"
**.R4I5.relayIpc.ipcAddress = "4.5"
**.R4I5.ipcProcess[0].difName = "4.1X4.5"
**.R4I5.ipcProcess[0].ipcAddress = "B"
**.R4I5.ipcProcess[1].difName = "4.5X4.6"
**.R4I5.ipcProcess[1].ipcAddress = "A"
**.R4I5.ipcProcess[2].difName = "4.5X4.7"
**.R4I5.ipcProcess[2].ipcAddress = "A"
**.R4I5.ipcProcess[3].difName = "4.5X4.b"
**.R4I5.ipcProcess[3].ipcAddress = "A"
**.R4I5.ipcProcess[4].difName = "4.5X4.d"
**.R4I5.ipcProcess[4].ipcAddress = "A"
**.R4I5.ipcProcess[5].difName = "3.cX4.5"
**.R4I5.ipcProcess[5].ipcAddress = "B"
**.R4I5.ipcProcess[6].difName = "4.5X8.c"
**.R4I5.ipcProcess[6].ipcAddress = "A"
**.R4I5.ipcProcess[7].difName = "4.5Xe.4"
**.R4I5.ipcProcess[7].ipcAddress = "A"
**.R4I5.ipcProcess[8].difName = "4.5Xe.b"
**.R4I5.ipcProcess[8].ipcAddress = "A"
**.R4I5.ipcProcess[9].difName = "4.5Xf.7"
**.R4I5.ipcProcess[9].ipcAddress = "A"
**.R4I6.relayIpc.ipcAddress = "4.6"
**.R4I6.ipcProcess[0].difName = "4.1X4.6"
**.R4I6.ipcProcess[0].ipcAddress = "B"
**.R4I6.ipcProcess[1].difName = "4.3X4.6"
**.R4I6.ipcProcess[1].ipcAddress = "B"
**.R4I6.ipcProcess[2].difName = "4.5X4.6"
**.R4I6.ipcProcess[2].ipcAddress = "B"
**.R4I6.ipcProcess[3].difName = "4.6X4.8"
**.R4I6.ipcProcess[3].ipcAddress = "A"
**.R4I6.ipcProcess[4].difName = "4.6X4.b"
**.R4I6.ipcProcess[4].ipcAddress = "A"
**.R4I7.relayIpc.ipcAddress = "4.7"
**.R4I7.ipcProcess[0].difName = "4.1X4.7"
**.R4I7.ipcProcess[0].ipcAddress = "B"
**.R4I7.ipcProcess[1].difName = "4.5X4.7"
**.R4I7.ipcProcess[1].ipcAddress = "B"
**.R4I7.ipcProcess[2].difName = "4.7X4.a"
**.R4I7.ipcProcess[2].ipcAddress = "A"
**.R4I7.ipcProcess[3].difName = "4.7X4.b"
**.R4I7.ipcProcess[3].ipcAddress = "A"
**.R4I8.relayIpc.ipcAddress = "4.8"
**.R4I8.ipcProcess[0].difName = "4.6X4.8"
**.R4I8.ipcProcess[0].ipcAddress = "B"
**.R4I8.ipcProcess[1].difName = "4.8Xe.c"
**.R4I8.ipcProcess[1].ipcAddress = "A"
**.R4I9.relayIpc.ipcAddress = "4.9"
**.R4I9.ipcProcess[0].difName = "4.9X4.a"
**.R4I9.ipcProcess[0].ipcAddress = "A"
**.R4I9.ipcProcess[1].difName = "4.9X4.c"
**.R4I9.ipcProcess[1].ipcAddress = "A"
**.R4I9.ipcProcess[2].difName = "4.9X4.e"
**.R4I9.ipcProcess[2].ipcAddress = "A"
**.R4Ia.relayIpc.ipcAddress = "4.a"
**.R4Ia.ipcProcess[0].difName = "4.3X4.a"
**.R4Ia.ipcProcess[0].ipcAddress = "B"
**.R4Ia.ipcProcess[1].difName = "4.7X4.a"
**.R4Ia.ipcProcess[1].ipcAddress = "B"
**.R4Ia.ipcProcess[2].difName = "4.9X4.a"
**.R4Ia.ipcProcess[2].ipcAddress = "B"
**.R4Ia.ipcProcess[3].difName = "4.aX4.c"
**.R4Ia.ipcProcess[3].ipcAddress = "A"
**.R4Ib.relayIpc.ipcAddress = "4.b"
**.R4Ib.ipcProcess[0].difName = "4.2X4.b"
**.R4Ib.ipcProcess[0].ipcAddress = "B"
**.R4Ib.ipcProcess[1].difName = "4.4X4.b"
**.R4Ib.ipcProcess[1].ipcAddress = "B"
**.R4Ib.ipcProcess[2].difName = "4.5X4.b"
**.R4Ib.ipcProcess[2].ipcAddress = "B"
**.R4Ib.ipcProcess[3].difName = "4.6X4.b"
**.R4Ib.ipcProcess[3].ipcAddress = "B"
**.R4Ib.ipcProcess[4].difName = "4.7X4.b"
**.R4Ib.ipcProcess[4].ipcAddress = "B"
**.R4Ib.ipcProcess[5].difName = "4.bX4.c"
**.R4Ib.ipcProcess[5].ipcAddress = "A"
**.R4Ib.ipcProcess[6].difName = "4.bX4.e"
**.R4Ib.ipcProcess[6].ipcAddress = "A"
**.R4Ib.ipcProcess[7].difName = "3.8X4.b"
**.R4Ib.ipcProcess[7].ipcAddress = "B"
**.R4Ib.ipcProcess[8].difName = "4.bX8.5"
**.R4Ib.ipcProcess[8].ipcAddress = "A"
**.R4Ib.ipcProcess[9].difName = "4.bXf.a"
**.R4Ib.ipcProcess[9].ipcAddress = "A"
**.R4Ic.relayIpc.ipcAddress = "4.c"
**.R4Ic.ipcProcess[0].difName = "4.3X4.c"
**.R4Ic.ipcProcess[0].ipcAddress = "B"
**.R4Ic.ipcProcess[1].difName = "4.9X4.c"
**.R4Ic.ipcProcess[1].ipcAddress = "B"
**.R4Ic.ipcProcess[2].difName = "4.aX4.c"
**.R4Ic.ipcProcess[2].ipcAddress = "B"
**.R4Ic.ipcProcess[3].difName = "4.bX4.c"
**.R4Ic.ipcProcess[3].ipcAddress = "B"
**.R4Ic.ipcProcess[4].difName = "4.cX4.e"
**.R4Ic.ipcProcess[4].ipcAddress = "A"
**.R4Id.relayIpc.ipcAddress = "4.d"
**.R4Id.ipcProcess[0].difName = "4.1X4.d"
**.R4Id.ipcProcess[0].ipcAddress = "B"
**.R4Id.ipcProcess[1].difName = "4.2X4.d"
**.R4Id.ipcProcess[1].ipcAddress = "B"
**.R4Id.ipcProcess[2].difName = "4.5X4.d"
**.R4Id.ipcProcess[2].ipcAddress = "B"
**.R4Id.ipcProcess[3].difName = "1.1X4.d"
**.R4Id.ipcProcess[3].ipcAddress = "B"
**.R4Ie.relayIpc.ipcAddress = "4.e"
**.R4Ie.ipcProcess[0].difName = "4.1X4.e"
**.R4Ie.ipcProcess[0].ipcAddress = "B"
**.R4Ie.ipcProcess[1].difName = "4.9X4.e"
**.R4Ie.ipcProcess[1].ipcAddress = "B"
**.R4Ie.ipcProcess[2].difName = "4.bX4.e"
**.R4Ie.ipcProcess[2].ipcAddress = "B"
**.R4Ie.ipcProcess[3].difName = "4.cX4.e"
**.R4Ie.ipcProcess[3].ipcAddress = "B"
**.R5I1.relayIpc.ipcAddress = "5.1"
**.R5I1.ipcProcess[0].difName = "5.1X5.7"
**.R5I1.ipcProcess[0].ipcAddress = "A"
**.R5I1.ipcProcess[1].difName = "5.1X5.a"
**.R5I1.ipcProcess[1].ipcAddress = "A"
**.R5I10.relayIpc.ipcAddress = "5.10"
**.R5I10.ipcProcess[0].difName = "5.10X5.8"
**.R5I10.ipcProcess[0].ipcAddress = "A"
**.R5I10.ipcProcess[1].difName = "5.10X5.b"
**.R5I10.ipcProcess[1].ipcAddress = "A"
**.R5I10.ipcProcess[2].difName = "5.10X5.d"
**.R5I10.ipcProcess[2].ipcAddress = "A"
**.R5I10.ipcProcess[3].difName = "2.2X5.10"
**.R5I10.ipcProcess[3].ipcAddress = "B"
**.R5I10.ipcProcess[4].difName = "3.cX5.10"
**.R5I10.ipcProcess[4].ipcAddress = "B"
**.R5I10.ipcProcess[5].difName = "5.10X8.1"
**.R5I10.ipcProcess[5].ipcAddress = "A"
**.R5I10.ipcProcess[6].difName = "5.10Xa.e"
**.R5I10.ipcProcess[6].ipcAddress = "A"
**.R5I2.relayIpc.ipcAddress = "5.2"
**.R5I2.ipcProcess[0].difName = "5.2X5.9"
**.R5I2.ipcProcess[0].ipcAddress = "A"
**.R5I2.ipcProcess[1].difName = "5.2X5.e"
**.R5I2.ipcProcess[1].ipcAddress = "A"
**.R5I2.ipcProcess[2].difName = "5.2X5.f"
**.R5I2.ipcProcess[2].ipcAddress = "A"
**.R5I3.relayIpc.ipcAddress = "5.3"
**.R5I3.ipcProcess[0].difName = "5.3X5.7"
**.R5I3.ipcProcess[0].ipcAddress = "A"
**.R5I3.ipcProcess[1].difName = "5.3X5.b"
**.R5I3.ipcProcess[1].ipcAddress = "A"
**.R5I3.ipcProcess[2].difName = "5.3X5.c"
**.R5I3.ipcProcess[2].ipcAddress = "A"
**.R5I3.ipcProcess[3].difName = "5.3X5.e"
**.R5I3.ipcProcess[3].ipcAddress = "A"
**.R5I4.relayIpc.ipcAddress = "5.4"
**.R5I4.ipcProcess[0].difName = "5.4X5.5"
**.R5I4.ipcProcess[0].ipcAddress = "A"
**.R5I4.ipcProcess[1].difName = "5.4X5.6"
**.R5I4.ipcProcess[1].ipcAddress = "A"
**.R5I4.ipcProcess[2].difName = "5.4X5.c"
**.R5I4.ipcProcess[2].ipcAddress = "A"
**.R5I4.ipcProcess[3].difName = "5.4X5.d"
**.R5I4.ipcProcess[3].ipcAddress = "A"
**.R5I5.relayIpc.ipcAddress = "5.5"
**.R5I5.ipcProcess[0].difName = "5.4X5.5"
**.R5I5.ipcProcess[0].ipcAddress = "B"
**.R5I5.ipcProcess[1].difName = "5.5X5.7"
**.R5I5.ipcProcess[1].ipcAddress = "A"
**.R5I5.ipcProcess[2].difName = "5.5X5.9"
**.R5I5.ipcProcess[2].ipcAddress = "A"
**.R5I5.ipcProcess[3].difName = "5.5X5.f"
**.R5I5.ipcProcess[3].ipcAddress = "A"
**.R5I6.relayIpc.ipcAddress = "5.6"
**.R5I6.ipcProcess[0].difName = "5.4X5.6"
**.R5I6.ipcProcess[0].ipcAddress = "B"
**.R5I6.ipcProcess[1].difName = "5.6X5.7"
**.R5I6.ipcProcess[1].ipcAddress = "A"
**.R5I6.ipcProcess[2].difName = "5.6X5.d"
**.R5I6.ipcProcess[2].ipcAddress = "A"
**.R5I7.relayIpc.ipcAddress = "5.7"
**.R5I7.ipcProcess[0].difName = "5.1X5.7"
**.R5I7.ipcProcess[0].ipcAddress = "B"
**.R5I7.ipcProcess[1].difName = "5.3X5.7"
**.R5I7.ipcProcess[1].ipcAddress = "B"
**.R5I7.ipcProcess[2].difName = "5.5X5.7"
**.R5I7.ipcProcess[2].ipcAddress = "B"
**.R5I7.ipcProcess[3].difName = "5.6X5.7"
**.R5I7.ipcProcess[3].ipcAddress = "B"
**.R5I7.ipcProcess[4].difName = "5.7X5.b"
**.R5I7.ipcProcess[4].ipcAddress = "A"
**.R5I7.ipcProcess[5].difName = "5.7X5.c"
**.R5I7.ipcProcess[5].ipcAddress = "A"
**.R5I7.ipcProcess[6].difName = "5.7X5.d"
**.R5I7.ipcProcess[6].ipcAddress = "A"
**.R5I7.ipcProcess[7].difName = "5.7X5.f"
**.R5I7.ipcProcess[7].ipcAddress = "A"
**.R5I8.relayIpc.ipcAddress = "5.8"
**.R5I8.ipcProcess[0].difName = "5.10X5.8"
**.R5I8.ipcProcess[0].ipcAddress = "B"
**.R5I8.ipcProcess[1].difName = "5.8X5.9"
**.R5I8.ipcProcess[1].ipcAddress = "A"
**.R5I8.ipcProcess[2].difName = "5.8X5.a"
**.R5I8.ipcProcess[2].ipcAddress = "A"
**.R5I8.ipcProcess[3].difName = "3.aX5.8"
**.R5I8.ipcProcess[3].ipcAddress = "B"
**.R5I8.ipcProcess[4].difName = "3.eX5.8"
**.R5I8.ipcProcess[4].ipcAddress = "B"
**.R5I8.ipcProcess[5].difName = "5.8X8.c"
**.R5I8.ipcProcess[5].ipcAddress = "A"
**.R5I9.relayIpc.ipcAddress = "5.9"
**.R5I9.ipcProcess[0].difName = "5.2X5.9"
**.R5I9.ipcProcess[0].ipcAddress = "B"
**.R5I9.ipcProcess[1].difName = "5.5X5.9"
**.R5I9.ipcProcess[1].ipcAddress = "B"
**.R5I9.ipcProcess[2].difName = "5.8X5.9"
**.R5I9.ipcProcess[2].ipcAddress = "B"
**.R5Ia.relayIpc.ipcAddress = "5.a"
**.R5Ia.ipcProcess[0].difName = "5.1X5.a"
**.R5Ia.ipcProcess[0].ipcAddress = "B"
**.R5Ia.ipcProcess[1].difName = "5.8X5.a"
**.R5Ia.ipcProcess[1].ipcAddress = "B"
**.R5Ia.ipcProcess[2].difName = "5.aX5.c"
**.R5Ia.ipcProcess[2].ipcAddress = "A"
**.R5Ia.ipcProcess[3].difName = "5.aX5.e"
**.R5Ia.ipcProcess[3].ipcAddress = "A"
**.R5Ib.relayIpc.ipcAddress = "5.b"
**.R5Ib.ipcProcess[0].difName = "5.10X5.b"
**.R5Ib.ipcProcess[0].ipcAddress = "B"
**.R5Ib.ipcProcess[1].difName = "5.3X5.b"
**.R5Ib.ipcProcess[1].ipcAddress = "B"
**.R5Ib.ipcProcess[2].difName = "5.7X5.b"
**.R5Ib.ipcProcess[2].ipcAddress = "B"
**.R5Ib.ipcProcess[3].difName = "5.bX7.c"
**.R5Ib.ipcProcess[3].ipcAddress = "A"
**.R5Ib.ipcProcess[4].difName = "5.bXa.e"
**.R5Ib.ipcProcess[4].ipcAddress = "A"
**.R5Ic.relayIpc.ipcAddress = "5.c"
**.R5Ic.ipcProcess[0].difName = "5.3X5.c"
**.R5Ic.ipcProcess[0].ipcAddress = "B"
**.R5Ic.ipcProcess[1].difName = "5.4X5.c"
**.R5Ic.ipcProcess[1].ipcAddress = "B"
**.R5Ic.ipcProcess[2].difName = "5.7X5.c"
**.R5Ic.ipcProcess[2].ipcAddress = "B"
**.R5Ic.ipcProcess[3].difName = "5.aX5.c"
**.R5Ic.ipcProcess[3].ipcAddress = "B"
**.R5Ic.ipcProcess[4].difName = "5.cX5.d"
**.R5Ic.ipcProcess[4].ipcAddress = "A"
**.R5Id.relayIpc.ipcAddress = "5.d"
**.R5Id.ipcProcess[0].difName = "5.10X5.d"
**.R5Id.ipcProcess[0].ipcAddress = "B"
**.R5Id.ipcProcess[1].difName = "5.4X5.d"
**.R5Id.ipcProcess[1].ipcAddress = "B"
**.R5Id.ipcProcess[2].difName = "5.6X5.d"
**.R5Id.ipcProcess[2].ipcAddress = "B"
**.R5Id.ipcProcess[3].difName = "5.7X5.d"
**.R5Id.ipcProcess[3].ipcAddress = "B"
**.R5Id.ipcProcess[4].difName = "5.cX5.d"
**.R5Id.ipcProcess[4].ipcAddress = "B"
**.R5Id.ipcProcess[5].difName = "5.dX5.e"
**.R5Id.ipcProcess[5].ipcAddress = "A"
**.R5Id.ipcProcess[6].difName = "5.dX5.f"
**.R5Id.ipcProcess[6].ipcAddress = "A"
**.R5Id.ipcProcess[7].difName = "2.2X5.d"
**.R5Id.ipcProcess[7].ipcAddress = "B"
**.R5Id.ipcProcess[8].difName = "5.dX7.8"
**.R5Id.ipcProcess[8].ipcAddress = "A"
**.R5Id.ipcProcess[9].difName = "5.dX8.1"
**.R5Id.ipcProcess[9].ipcAddress = "A"
**.R5Ie.relayIpc.ipcAddress = "5.e"
**.R5Ie.ipcProcess[0].difName = "5.2X5.e"
**.R5Ie.ipcProcess[0].ipcAddress = "B"
**.R5Ie.ipcProcess[1].difName = "5.3X5.e"
**.R5Ie.ipcProcess[1].ipcAddress = "B"
**.R5Ie.ipcProcess[2].difName = "5.aX5.e"
**.R5Ie.ipcProcess[2].ipcAddress = "B"
**.R5Ie.ipcProcess[3].difName = "5.dX5.e"
**.R5Ie.ipcProcess[3].ipcAddress = "B"
**.R5If.relayIpc.ipcAddress = "5.f"
**.R5If.ipcProcess[0].difName = "5.2X5.f"
**.R5If.ipcProcess[0].ipcAddress = "B"
**.R5If.ipcProcess[1].difName = "5.5X5.f"
**.R5If.ipcProcess[1].ipcAddress = "B"
**.R5If.ipcProcess[2].difName = "5.7X5.f"
**.R5If.ipcProcess[2].ipcAddress = "B"
**.R5If.ipcProcess[3].difName = "5.dX5.f"
**.R5If.ipcProcess[3].ipcAddress = "B"
**.R6I1.relayIpc.ipcAddress = "6.1"
**.R6I1.ipcProcess[0].difName = "6.1X6.2"
**.R6I1.ipcProcess[0].ipcAddress = "A"
**.R6I1.ipcProcess[1].difName = "6.1X6.4"
**.R6I1.ipcProcess[1].ipcAddress = "A"
**.R6I1.ipcProcess[2].difName = "6.1X6.6"
**.R6I1.ipcProcess[2].ipcAddress = "A"