[General]
network = randPrefNet

sim-time-limit =  5min


**.relayIpc.difName = "DC"
**.R1I1.relayIpc.ipcAddress = "1.1"
**.R1I1.ipcProcess[0].difName = "1.1X1.3"
**.R1I1.ipcProcess[0].ipcAddress = "A"
**.R1I1.ipcProcess[1].difName = "1.1X1.4"
**.R1I1.ipcProcess[1].ipcAddress = "A"
**.R1I1.ipcProcess[2].difName = "1.1X1.a"
**.R1I1.ipcProcess[2].ipcAddress = "A"
**.R1I1.ipcProcess[3].difName = "1.1Xa.b"
**.R1I1.ipcProcess[3].ipcAddress = "A"
**.R1I2.relayIpc.ipcAddress = "1.2"
**.R1I2.ipcProcess[0].difName = "1.2X1.5"
**.R1I2.ipcProcess[0].ipcAddress = "A"
**.R1I2.ipcProcess[1].difName = "1.2X1.c"
**.R1I2.ipcProcess[1].ipcAddress = "A"
**.R1I2.ipcProcess[2].difName = "1.2X6.a"
**.R1I2.ipcProcess[2].ipcAddress = "A"
**.R1I2.ipcProcess[3].difName = "1.2Xa.b"
**.R1I2.ipcProcess[3].ipcAddress = "A"
**.R1I3.relayIpc.ipcAddress = "1.3"
**.R1I3.ipcProcess[0].difName = "1.1X1.3"
**.R1I3.ipcProcess[0].ipcAddress = "B"
**.R1I3.ipcProcess[1].difName = "1.3X1.4"
**.R1I3.ipcProcess[1].ipcAddress = "A"
**.R1I3.ipcProcess[2].difName = "1.3X1.5"
**.R1I3.ipcProcess[2].ipcAddress = "A"
**.R1I3.ipcProcess[3].difName = "1.3X1.7"
**.R1I3.ipcProcess[3].ipcAddress = "A"
**.R1I3.ipcProcess[4].difName = "1.3X1.9"
**.R1I3.ipcProcess[4].ipcAddress = "A"
**.R1I3.ipcProcess[5].difName = "1.3X2.9"
**.R1I3.ipcProcess[5].ipcAddress = "A"
**.R1I4.relayIpc.ipcAddress = "1.4"
**.R1I4.ipcProcess[0].difName = "1.1X1.4"
**.R1I4.ipcProcess[0].ipcAddress = "B"
**.R1I4.ipcProcess[1].difName = "1.3X1.4"
**.R1I4.ipcProcess[1].ipcAddress = "B"
**.R1I4.ipcProcess[2].difName = "1.4X1.5"
**.R1I4.ipcProcess[2].ipcAddress = "A"
**.R1I4.ipcProcess[3].difName = "1.4X1.7"
**.R1I4.ipcProcess[3].ipcAddress = "A"
**.R1I4.ipcProcess[4].difName = "1.4X1.9"
**.R1I4.ipcProcess[4].ipcAddress = "A"
**.R1I5.relayIpc.ipcAddress = "1.5"
**.R1I5.ipcProcess[0].difName = "1.2X1.5"
**.R1I5.ipcProcess[0].ipcAddress = "B"
**.R1I5.ipcProcess[1].difName = "1.3X1.5"
**.R1I5.ipcProcess[1].ipcAddress = "B"
**.R1I5.ipcProcess[2].difName = "1.4X1.5"
**.R1I5.ipcProcess[2].ipcAddress = "B"
**.R1I5.ipcProcess[3].difName = "1.5X1.8"
**.R1I5.ipcProcess[3].ipcAddress = "A"
**.R1I5.ipcProcess[4].difName = "1.5X1.b"
**.R1I5.ipcProcess[4].ipcAddress = "A"
**.R1I5.ipcProcess[5].difName = "1.5X1.e"
**.R1I5.ipcProcess[5].ipcAddress = "A"
**.R1I6.relayIpc.ipcAddress = "1.6"
**.R1I6.ipcProcess[0].difName = "1.6X1.7"
**.R1I6.ipcProcess[0].ipcAddress = "A"
**.R1I6.ipcProcess[1].difName = "1.6X1.f"
**.R1I6.ipcProcess[1].ipcAddress = "A"
**.R1I6.ipcProcess[2].difName = "1.6X6.8"
**.R1I6.ipcProcess[2].ipcAddress = "A"
**.R1I6.ipcProcess[3].difName = "1.6Xa.b"
**.R1I6.ipcProcess[3].ipcAddress = "A"
**.R1I7.relayIpc.ipcAddress = "1.7"
**.R1I7.ipcProcess[0].difName = "1.3X1.7"
**.R1I7.ipcProcess[0].ipcAddress = "B"
**.R1I7.ipcProcess[1].difName = "1.4X1.7"
**.R1I7.ipcProcess[1].ipcAddress = "B"
**.R1I7.ipcProcess[2].difName = "1.6X1.7"
**.R1I7.ipcProcess[2].ipcAddress = "B"
**.R1I7.ipcProcess[3].difName = "1.7X1.8"
**.R1I7.ipcProcess[3].ipcAddress = "A"
**.R1I7.ipcProcess[4].difName = "1.7X1.a"
**.R1I7.ipcProcess[4].ipcAddress = "A"
**.R1I7.ipcProcess[5].difName = "1.7X1.e"
**.R1I7.ipcProcess[5].ipcAddress = "A"
**.R1I7.ipcProcess[6].difName = "1.7X1.f"
**.R1I7.ipcProcess[6].ipcAddress = "A"
**.R1I8.relayIpc.ipcAddress = "1.8"
**.R1I8.ipcProcess[0].difName = "1.5X1.8"
**.R1I8.ipcProcess[0].ipcAddress = "B"
**.R1I8.ipcProcess[1].difName = "1.7X1.8"
**.R1I8.ipcProcess[1].ipcAddress = "B"
**.R1I8.ipcProcess[2].difName = "1.8X1.9"
**.R1I8.ipcProcess[2].ipcAddress = "A"
**.R1I8.ipcProcess[3].difName = "1.8X1.c"
**.R1I8.ipcProcess[3].ipcAddress = "A"
**.R1I8.ipcProcess[4].difName = "1.8X1.e"
**.R1I8.ipcProcess[4].ipcAddress = "A"
**.R1I9.relayIpc.ipcAddress = "1.9"
**.R1I9.ipcProcess[0].difName = "1.3X1.9"
**.R1I9.ipcProcess[0].ipcAddress = "B"
**.R1I9.ipcProcess[1].difName = "1.4X1.9"
**.R1I9.ipcProcess[1].ipcAddress = "B"
**.R1I9.ipcProcess[2].difName = "1.8X1.9"
**.R1I9.ipcProcess[2].ipcAddress = "B"
**.R1I9.ipcProcess[3].difName = "1.9X1.e"
**.R1I9.ipcProcess[3].ipcAddress = "A"
**.R1I9.ipcProcess[4].difName = "1.9X1.f"
**.R1I9.ipcProcess[4].ipcAddress = "A"
**.R1Ia.relayIpc.ipcAddress = "1.a"
**.R1Ia.ipcProcess[0].difName = "1.1X1.a"
**.R1Ia.ipcProcess[0].ipcAddress = "B"
**.R1Ia.ipcProcess[1].difName = "1.7X1.a"
**.R1Ia.ipcProcess[1].ipcAddress = "B"
**.R1Ia.ipcProcess[2].difName = "1.aX1.d"
**.R1Ia.ipcProcess[2].ipcAddress = "A"
**.R1Ib.relayIpc.ipcAddress = "1.b"
**.R1Ib.ipcProcess[0].difName = "1.5X1.b"
**.R1Ib.ipcProcess[0].ipcAddress = "B"
**.R1Ib.ipcProcess[1].difName = "1.bX1.c"
**.R1Ib.ipcProcess[1].ipcAddress = "A"
**.R1Ic.relayIpc.ipcAddress = "1.c"
**.R1Ic.ipcProcess[0].difName = "1.2X1.c"
**.R1Ic.ipcProcess[0].ipcAddress = "B"
**.R1Ic.ipcProcess[1].difName = "1.8X1.c"
**.R1Ic.ipcProcess[1].ipcAddress = "B"
**.R1Ic.ipcProcess[2].difName = "1.bX1.c"
**.R1Ic.ipcProcess[2].ipcAddress = "B"
**.R1Ic.ipcProcess[3].difName = "1.cX1.e"
**.R1Ic.ipcProcess[3].ipcAddress = "A"
**.R1Id.relayIpc.ipcAddress = "1.d"
**.R1Id.ipcProcess[0].difName = "1.aX1.d"
**.R1Id.ipcProcess[0].ipcAddress = "B"
**.R1Id.ipcProcess[1].difName = "1.dX1.e"
**.R1Id.ipcProcess[1].ipcAddress = "A"
**.R1Ie.relayIpc.ipcAddress = "1.e"
**.R1Ie.ipcProcess[0].difName = "1.5X1.e"
**.R1Ie.ipcProcess[0].ipcAddress = "B"
**.R1Ie.ipcProcess[1].difName = "1.7X1.e"
**.R1Ie.ipcProcess[1].ipcAddress = "B"
**.R1Ie.ipcProcess[2].difName = "1.8X1.e"
**.R1Ie.ipcProcess[2].ipcAddress = "B"
**.R1Ie.ipcProcess[3].difName = "1.9X1.e"
**.R1Ie.ipcProcess[3].ipcAddress = "B"
**.R1Ie.ipcProcess[4].difName = "1.cX1.e"
**.R1Ie.ipcProcess[4].ipcAddress = "B"
**.R1Ie.ipcProcess[5].difName = "1.dX1.e"
**.R1Ie.ipcProcess[5].ipcAddress = "B"
**.R1If.relayIpc.ipcAddress = "1.f"
**.R1If.ipcProcess[0].difName = "1.6X1.f"
**.R1If.ipcProcess[0].ipcAddress = "B"
**.R1If.ipcProcess[1].difName = "1.7X1.f"
**.R1If.ipcProcess[1].ipcAddress = "B"
**.R1If.ipcProcess[2].difName = "1.9X1.f"
**.R1If.ipcProcess[2].ipcAddress = "B"
**.R1If.ipcProcess[3].difName = "1.fX2.2"
**.R1If.ipcProcess[3].ipcAddress = "A"
**.R1If.ipcProcess[4].difName = "1.fX6.2"
**.R1If.ipcProcess[4].ipcAddress = "A"
**.R2I1.relayIpc.ipcAddress = "2.1"
**.R2I1.ipcProcess[0].difName = "2.1X2.3"
**.R2I1.ipcProcess[0].ipcAddress = "A"
**.R2I1.ipcProcess[1].difName = "2.1X2.f"
**.R2I1.ipcProcess[1].ipcAddress = "A"
**.R2I10.relayIpc.ipcAddress = "2.10"
**.R2I10.ipcProcess[0].difName = "2.10X2.3"
**.R2I10.ipcProcess[0].ipcAddress = "A"
**.R2I10.ipcProcess[1].difName = "2.10X2.b"
**.R2I10.ipcProcess[1].ipcAddress = "A"
**.R2I2.relayIpc.ipcAddress = "2.2"
**.R2I2.ipcProcess[0].difName = "2.2X2.6"
**.R2I2.ipcProcess[0].ipcAddress = "A"
**.R2I2.ipcProcess[1].difName = "2.2X2.9"
**.R2I2.ipcProcess[1].ipcAddress = "A"
**.R2I2.ipcProcess[2].difName = "2.2X2.d"
**.R2I2.ipcProcess[2].ipcAddress = "A"
**.R2I2.ipcProcess[3].difName = "2.2X2.f"
**.R2I2.ipcProcess[3].ipcAddress = "A"
**.R2I2.ipcProcess[4].difName = "1.fX2.2"
**.R2I2.ipcProcess[4].ipcAddress = "B"
**.R2I2.ipcProcess[5].difName = "2.2X6.2"
**.R2I2.ipcProcess[5].ipcAddress = "A"
**.R2I2.ipcProcess[6].difName = "2.2X6.a"
**.R2I2.ipcProcess[6].ipcAddress = "A"
**.R2I2.ipcProcess[7].difName = "2.2X7.2"
**.R2I2.ipcProcess[7].ipcAddress = "A"
**.R2I2.ipcProcess[8].difName = "2.2X7.6"
**.R2I2.ipcProcess[8].ipcAddress = "A"
**.R2I3.relayIpc.ipcAddress = "2.3"
**.R2I3.ipcProcess[0].difName = "2.1X2.3"
**.R2I3.ipcProcess[0].ipcAddress = "B"
**.R2I3.ipcProcess[1].difName = "2.10X2.3"
**.R2I3.ipcProcess[1].ipcAddress = "B"
**.R2I3.ipcProcess[2].difName = "2.3X2.4"
**.R2I3.ipcProcess[2].ipcAddress = "A"
**.R2I3.ipcProcess[3].difName = "2.3X2.7"
**.R2I3.ipcProcess[3].ipcAddress = "A"
**.R2I3.ipcProcess[4].difName = "2.3X2.a"
**.R2I3.ipcProcess[4].ipcAddress = "A"
**.R2I3.ipcProcess[5].difName = "2.3X2.c"
**.R2I3.ipcProcess[5].ipcAddress = "A"
**.R2I3.ipcProcess[6].difName = "2.3X2.e"
**.R2I3.ipcProcess[6].ipcAddress = "A"
**.R2I3.ipcProcess[7].difName = "2.3X2.f"
**.R2I3.ipcProcess[7].ipcAddress = "A"
**.R2I4.relayIpc.ipcAddress = "2.4"
**.R2I4.ipcProcess[0].difName = "2.3X2.4"
**.R2I4.ipcProcess[0].ipcAddress = "B"
**.R2I4.ipcProcess[1].difName = "2.4X2.8"
**.R2I4.ipcProcess[1].ipcAddress = "A"
**.R2I4.ipcProcess[2].difName = "2.4X2.c"
**.R2I4.ipcProcess[2].ipcAddress = "A"
**.R2I4.ipcProcess[3].difName = "2.4X2.d"
**.R2I4.ipcProcess[3].ipcAddress = "A"
**.R2I4.ipcProcess[4].difName = "2.4X2.e"
**.R2I4.ipcProcess[4].ipcAddress = "A"
**.R2I5.relayIpc.ipcAddress = "2.5"
**.R2I5.ipcProcess[0].difName = "2.5X2.7"
**.R2I5.ipcProcess[0].ipcAddress = "A"
**.R2I5.ipcProcess[1].difName = "2.5X2.a"
**.R2I5.ipcProcess[1].ipcAddress = "A"
**.R2I5.ipcProcess[2].difName = "2.5X2.c"
**.R2I5.ipcProcess[2].ipcAddress = "A"
**.R2I5.ipcProcess[3].difName = "2.5X2.e"
**.R2I5.ipcProcess[3].ipcAddress = "A"
**.R2I6.relayIpc.ipcAddress = "2.6"
**.R2I6.ipcProcess[0].difName = "2.2X2.6"
**.R2I6.ipcProcess[0].ipcAddress = "B"
**.R2I6.ipcProcess[1].difName = "2.6X2.a"
**.R2I6.ipcProcess[1].ipcAddress = "A"
**.R2I6.ipcProcess[2].difName = "2.6X2.b"
**.R2I6.ipcProcess[2].ipcAddress = "A"
**.R2I6.ipcProcess[3].difName = "2.6X2.e"
**.R2I6.ipcProcess[3].ipcAddress = "A"
**.R2I7.relayIpc.ipcAddress = "2.7"
**.R2I7.ipcProcess[0].difName = "2.3X2.7"
**.R2I7.ipcProcess[0].ipcAddress = "B"
**.R2I7.ipcProcess[1].difName = "2.5X2.7"
**.R2I7.ipcProcess[1].ipcAddress = "B"
**.R2I8.relayIpc.ipcAddress = "2.8"
**.R2I8.ipcProcess[0].difName = "2.4X2.8"
**.R2I8.ipcProcess[0].ipcAddress = "B"
**.R2I8.ipcProcess[1].difName = "2.8X2.b"
**.R2I8.ipcProcess[1].ipcAddress = "A"
**.R2I9.relayIpc.ipcAddress = "2.9"
**.R2I9.ipcProcess[0].difName = "2.2X2.9"
**.R2I9.ipcProcess[0].ipcAddress = "B"
**.R2I9.ipcProcess[1].difName = "2.9X2.a"
**.R2I9.ipcProcess[1].ipcAddress = "A"
**.R2I9.ipcProcess[2].difName = "1.3X2.9"
**.R2I9.ipcProcess[2].ipcAddress = "B"
**.R2I9.ipcProcess[3].difName = "2.9X6.9"
**.R2I9.ipcProcess[3].ipcAddress = "A"
**.R2I9.ipcProcess[4].difName = "2.9X7.6"
**.R2I9.ipcProcess[4].ipcAddress = "A"
**.R2Ia.relayIpc.ipcAddress = "2.a"
**.R2Ia.ipcProcess[0].difName = "2.3X2.a"
**.R2Ia.ipcProcess[0].ipcAddress = "B"
**.R2Ia.ipcProcess[1].difName = "2.5X2.a"
**.R2Ia.ipcProcess[1].ipcAddress = "B"
**.R2Ia.ipcProcess[2].difName = "2.6X2.a"
**.R2Ia.ipcProcess[2].ipcAddress = "B"
**.R2Ia.ipcProcess[3].difName = "2.9X2.a"
**.R2Ia.ipcProcess[3].ipcAddress = "B"
**.R2Ia.ipcProcess[4].difName = "2.aX2.d"
**.R2Ia.ipcProcess[4].ipcAddress = "A"
**.R2Ia.ipcProcess[5].difName = "2.aX2.e"
**.R2Ia.ipcProcess[5].ipcAddress = "A"
**.R2Ia.ipcProcess[6].difName = "2.aX2.f"
**.R2Ia.ipcProcess[6].ipcAddress = "A"
**.R2Ib.relayIpc.ipcAddress = "2.b"
**.R2Ib.ipcProcess[0].difName = "2.10X2.b"
**.R2Ib.ipcProcess[0].ipcAddress = "B"
**.R2Ib.ipcProcess[1].difName = "2.6X2.b"
**.R2Ib.ipcProcess[1].ipcAddress = "B"
**.R2Ib.ipcProcess[2].difName = "2.8X2.b"
**.R2Ib.ipcProcess[2].ipcAddress = "B"
**.R2Ib.ipcProcess[3].difName = "2.bX2.e"
**.R2Ib.ipcProcess[3].ipcAddress = "A"
**.R2Ic.relayIpc.ipcAddress = "2.c"
**.R2Ic.ipcProcess[0].difName = "2.3X2.c"
**.R2Ic.ipcProcess[0].ipcAddress = "B"
**.R2Ic.ipcProcess[1].difName = "2.4X2.c"
**.R2Ic.ipcProcess[1].ipcAddress = "B"
**.R2Ic.ipcProcess[2].difName = "2.5X2.c"
**.R2Ic.ipcProcess[2].ipcAddress = "B"
**.R2Ic.ipcProcess[3].difName = "2.cX2.e"
**.R2Ic.ipcProcess[3].ipcAddress = "A"
**.R2Id.relayIpc.ipcAddress = "2.d"
**.R2Id.ipcProcess[0].difName = "2.2X2.d"
**.R2Id.ipcProcess[0].ipcAddress = "B"
**.R2Id.ipcProcess[1].difName = "2.4X2.d"
**.R2Id.ipcProcess[1].ipcAddress = "B"
**.R2Id.ipcProcess[2].difName = "2.aX2.d"
**.R2Id.ipcProcess[2].ipcAddress = "B"
**.R2Ie.relayIpc.ipcAddress = "2.e"
**.R2Ie.ipcProcess[0].difName = "2.3X2.e"
**.R2Ie.ipcProcess[0].ipcAddress = "B"
**.R2Ie.ipcProcess[1].difName = "2.4X2.e"
**.R2Ie.ipcProcess[1].ipcAddress = "B"
**.R2Ie.ipcProcess[2].difName = "2.5X2.e"
**.R2Ie.ipcProcess[2].ipcAddress = "B"
**.R2Ie.ipcProcess[3].difName = "2.6X2.e"
**.R2Ie.ipcProcess[3].ipcAddress = "B"
**.R2Ie.ipcProcess[4].difName = "2.aX2.e"
**.R2Ie.ipcProcess[4].ipcAddress = "B"
**.R2Ie.ipcProcess[5].difName = "2.bX2.e"
**.R2Ie.ipcProcess[5].ipcAddress = "B"
**.R2Ie.ipcProcess[6].difName = "2.cX2.e"
**.R2Ie.ipcProcess[6].ipcAddress = "B"
**.R2If.relayIpc.ipcAddress = "2.f"
**.R2If.ipcProcess[0].difName = "2.1X2.f"
**.R2If.ipcProcess[0].ipcAddress = "B"
**.R2If.ipcProcess[1].difName = "2.2X2.f"
**.R2If.ipcProcess[1].ipcAddress = "B"
**.R2If.ipcProcess[2].difName = "2.3X2.f"
**.R2If.ipcProcess[2].ipcAddress = "B"
**.R2If.ipcProcess[3].difName = "2.aX2.f"
**.R2If.ipcProcess[3].ipcAddress = "B"
**.R3I1.relayIpc.ipcAddress = "3.1"
**.R3I1.ipcProcess[0].difName = "3.1X3.2"
**.R3I1.ipcProcess[0].ipcAddress = "A"
**.R3I1.ipcProcess[1].difName = "3.1X3.4"
**.R3I1.ipcProcess[1].ipcAddress = "A"
**.R3I1.ipcProcess[2].difName = "3.1X9.6"
**.R3I1.ipcProcess[2].ipcAddress = "A"
**.R3I1.ipcProcess[3].difName = "3.1X9.9"
**.R3I1.ipcProcess[3].ipcAddress = "A"
**.R3I1.ipcProcess[4].difName = "3.1Xb.b"
**.R3I1.ipcProcess[4].ipcAddress = "A"
**.R3I1.ipcProcess[5].difName = "3.1Xe.d"
**.R3I1.ipcProcess[5].ipcAddress = "A"
**.R3I2.relayIpc.ipcAddress = "3.2"
**.R3I2.ipcProcess[0].difName = "3.1X3.2"
**.R3I2.ipcProcess[0].ipcAddress = "B"
**.R3I2.ipcProcess[1].difName = "3.2X3.3"
**.R3I2.ipcProcess[1].ipcAddress = "A"
**.R3I2.ipcProcess[2].difName = "3.2X3.4"
**.R3I2.ipcProcess[2].ipcAddress = "A"
**.R3I2.ipcProcess[3].difName = "3.2X3.8"
**.R3I2.ipcProcess[3].ipcAddress = "A"
**.R3I2.ipcProcess[4].difName = "3.2X3.9"
**.R3I2.ipcProcess[4].ipcAddress = "A"
**.R3I2.ipcProcess[5].difName = "3.2X3.a"
**.R3I2.ipcProcess[5].ipcAddress = "A"
**.R3I2.ipcProcess[6].difName = "3.2X3.c"
**.R3I2.ipcProcess[6].ipcAddress = "A"
**.R3I3.relayIpc.ipcAddress = "3.3"
**.R3I3.ipcProcess[0].difName = "3.2X3.3"
**.R3I3.ipcProcess[0].ipcAddress = "B"
**.R3I3.ipcProcess[1].difName = "3.3X3.7"
**.R3I3.ipcProcess[1].ipcAddress = "A"
**.R3I3.ipcProcess[2].difName = "3.3X3.8"
**.R3I3.ipcProcess[2].ipcAddress = "A"
**.R3I3.ipcProcess[3].difName = "3.3X3.9"
**.R3I3.ipcProcess[3].ipcAddress = "A"
**.R3I3.ipcProcess[4].difName = "3.3X3.a"
**.R3I3.ipcProcess[4].ipcAddress = "A"
**.R3I3.ipcProcess[5].difName = "3.3X3.b"
**.R3I3.ipcProcess[5].ipcAddress = "A"
**.R3I4.relayIpc.ipcAddress = "3.4"
**.R3I4.ipcProcess[0].difName = "3.1X3.4"
**.R3I4.ipcProcess[0].ipcAddress = "B"
**.R3I4.ipcProcess[1].difName = "3.2X3.4"
**.R3I4.ipcProcess[1].ipcAddress = "B"
**.R3I4.ipcProcess[2].difName = "3.4X3.8"
**.R3I4.ipcProcess[2].ipcAddress = "A"
**.R3I5.relayIpc.ipcAddress = "3.5"
**.R3I5.ipcProcess[0].difName = "3.5X3.8"
**.R3I5.ipcProcess[0].ipcAddress = "A"
**.R3I5.ipcProcess[1].difName = "3.5X3.a"
**.R3I5.ipcProcess[1].ipcAddress = "A"
**.R3I5.ipcProcess[2].difName = "3.5X3.b"
**.R3I5.ipcProcess[2].ipcAddress = "A"
**.R3I5.ipcProcess[3].difName = "3.5X4.e"
**.R3I5.ipcProcess[3].ipcAddress = "A"
**.R3I5.ipcProcess[4].difName = "3.5X6.2"
**.R3I5.ipcProcess[4].ipcAddress = "A"
**.R3I5.ipcProcess[5].difName = "3.5X7.2"
**.R3I5.ipcProcess[5].ipcAddress = "A"
**.R3I5.ipcProcess[6].difName = "3.5Xe.2"
**.R3I5.ipcProcess[6].ipcAddress = "A"
**.R3I6.relayIpc.ipcAddress = "3.6"
**.R3I6.ipcProcess[0].difName = "3.6X3.8"
**.R3I6.ipcProcess[0].ipcAddress = "A"
**.R3I6.ipcProcess[1].difName = "3.6X3.a"
**.R3I6.ipcProcess[1].ipcAddress = "A"
**.R3I7.relayIpc.ipcAddress = "3.7"
**.R3I7.ipcProcess[0].difName = "3.3X3.7"
**.R3I7.ipcProcess[0].ipcAddress = "B"
**.R3I7.ipcProcess[1].difName = "3.7X3.a"
**.R3I7.ipcProcess[1].ipcAddress = "A"
**.R3I7.ipcProcess[2].difName = "3.7X3.b"
**.R3I7.ipcProcess[2].ipcAddress = "A"
**.R3I7.ipcProcess[3].difName = "3.7X3.c"
**.R3I7.ipcProcess[3].ipcAddress = "A"
**.R3I8.relayIpc.ipcAddress = "3.8"
**.R3I8.ipcProcess[0].difName = "3.2X3.8"
**.R3I8.ipcProcess[0].ipcAddress = "B"
**.R3I8.ipcProcess[1].difName = "3.3X3.8"
**.R3I8.ipcProcess[1].ipcAddress = "B"
**.R3I8.ipcProcess[2].difName = "3.4X3.8"
**.R3I8.ipcProcess[2].ipcAddress = "B"
**.R3I8.ipcProcess[3].difName = "3.5X3.8"
**.R3I8.ipcProcess[3].ipcAddress = "B"
**.R3I8.ipcProcess[4].difName = "3.6X3.8"
**.R3I8.ipcProcess[4].ipcAddress = "B"
**.R3I8.ipcProcess[5].difName = "3.8X3.9"
**.R3I8.ipcProcess[5].ipcAddress = "A"
**.R3I8.ipcProcess[6].difName = "3.8X3.b"
**.R3I8.ipcProcess[6].ipcAddress = "A"
**.R3I8.ipcProcess[7].difName = "3.8X4.4"
**.R3I8.ipcProcess[7].ipcAddress = "A"
**.R3I8.ipcProcess[8].difName = "3.8X6.8"
**.R3I8.ipcProcess[8].ipcAddress = "A"
**.R3I8.ipcProcess[9].difName = "3.8X7.9"
**.R3I8.ipcProcess[9].ipcAddress = "A"
**.R3I8.ipcProcess[10].difName = "3.8X8.8"
**.R3I8.ipcProcess[10].ipcAddress = "A"
**.R3I8.ipcProcess[11].difName = "3.8Xe.5"
**.R3I8.ipcProcess[11].ipcAddress = "A"
**.R3I9.relayIpc.ipcAddress = "3.9"
**.R3I9.ipcProcess[0].difName = "3.2X3.9"
**.R3I9.ipcProcess[0].ipcAddress = "B"
**.R3I9.ipcProcess[1].difName = "3.3X3.9"
**.R3I9.ipcProcess[1].ipcAddress = "B"
**.R3I9.ipcProcess[2].difName = "3.8X3.9"
**.R3I9.ipcProcess[2].ipcAddress = "B"
**.R3Ia.relayIpc.ipcAddress = "3.a"
**.R3Ia.ipcProcess[0].difName = "3.2X3.a"
**.R3Ia.ipcProcess[0].ipcAddress = "B"
**.R3Ia.ipcProcess[1].difName = "3.3X3.a"
**.R3Ia.ipcProcess[1].ipcAddress = "B"
**.R3Ia.ipcProcess[2].difName = "3.5X3.a"
**.R3Ia.ipcProcess[2].ipcAddress = "B"
**.R3Ia.ipcProcess[3].difName = "3.6X3.a"
**.R3Ia.ipcProcess[3].ipcAddress = "B"
**.R3Ia.ipcProcess[4].difName = "3.7X3.a"
**.R3Ia.ipcProcess[4].ipcAddress = "B"
**.R3Ia.ipcProcess[5].difName = "3.aX6.8"
**.R3Ia.ipcProcess[5].ipcAddress = "A"
**.R3Ia.ipcProcess[6].difName = "3.aXb.9"
**.R3Ia.ipcProcess[6].ipcAddress = "A"
**.R3Ia.ipcProcess[7].difName = "3.aXd.7"
**.R3Ia.ipcProcess[7].ipcAddress = "A"
**.R3Ib.relayIpc.ipcAddress = "3.b"
**.R3Ib.ipcProcess[0].difName = "3.3X3.b"
**.R3Ib.ipcProcess[0].ipcAddress = "B"
**.R3Ib.ipcProcess[1].difName = "3.5X3.b"
**.R3Ib.ipcProcess[1].ipcAddress = "B"
**.R3Ib.ipcProcess[2].difName = "3.7X3.b"
**.R3Ib.ipcProcess[2].ipcAddress = "B"
**.R3Ib.ipcProcess[3].difName = "3.8X3.b"
**.R3Ib.ipcProcess[3].ipcAddress = "B"
**.R3Ic.relayIpc.ipcAddress = "3.c"
**.R3Ic.ipcProcess[0].difName = "3.2X3.c"
**.R3Ic.ipcProcess[0].ipcAddress = "B"
**.R3Ic.ipcProcess[1].difName = "3.7X3.c"
**.R3Ic.ipcProcess[1].ipcAddress = "B"
**.R3Ic.ipcProcess[2].difName = "3.cX8.b"
**.R3Ic.ipcProcess[2].ipcAddress = "A"
**.R3Ic.ipcProcess[3].difName = "3.cXb.9"
**.R3Ic.ipcProcess[3].ipcAddress = "A"
**.R3Ic.ipcProcess[4].difName = "3.cXd.7"
**.R3Ic.ipcProcess[4].ipcAddress = "A"
**.R3Ic.ipcProcess[5].difName = "3.cXd.8"
**.R3Ic.ipcProcess[5].ipcAddress = "A"
**.R4I1.relayIpc.ipcAddress = "4.1"
**.R4I1.ipcProcess[0].difName = "4.1X4.3"
**.R4I1.ipcProcess[0].ipcAddress = "A"
**.R4I1.ipcProcess[1].difName = "4.1X4.6"
**.R4I1.ipcProcess[1].ipcAddress = "A"
**.R4I1.ipcProcess[2].difName = "4.1X4.d"
**.R4I1.ipcProcess[2].ipcAddress = "A"
**.R4I1.ipcProcess[3].difName = "4.1X4.e"
**.R4I1.ipcProcess[3].ipcAddress = "A"
**.R4I1.ipcProcess[4].difName = "4.1X5.7"
**.R4I1.ipcProcess[4].ipcAddress = "A"
**.R4I1.ipcProcess[5].difName = "4.1Xf.5"
**.R4I1.ipcProcess[5].ipcAddress = "A"
**.R4I2.relayIpc.ipcAddress = "4.2"
**.R4I2.ipcProcess[0].difName = "4.2X4.5"
**.R4I2.ipcProcess[0].ipcAddress = "A"
**.R4I2.ipcProcess[1].difName = "4.2X4.6"
**.R4I2.ipcProcess[1].ipcAddress = "A"
**.R4I2.ipcProcess[2].difName = "4.2X4.a"
**.R4I2.ipcProcess[2].ipcAddress = "A"
**.R4I2.ipcProcess[3].difName = "4.2X4.b"
**.R4I2.ipcProcess[3].ipcAddress = "A"
**.R4I3.relayIpc.ipcAddress = "4.3"
**.R4I3.ipcProcess[0].difName = "4.1X4.3"
**.R4I3.ipcProcess[0].ipcAddress = "B"
**.R4I3.ipcProcess[1].difName = "4.3X4.5"
**.R4I3.ipcProcess[1].ipcAddress = "A"
**.R4I4.relayIpc.ipcAddress = "4.4"
**.R4I4.ipcProcess[0].difName = "4.4X4.5"
**.R4I4.ipcProcess[0].ipcAddress = "A"
**.R4I4.ipcProcess[1].difName = "4.4X4.8"
**.R4I4.ipcProcess[1].ipcAddress = "A"
**.R4I4.ipcProcess[2].difName = "4.4X4.9"
**.R4I4.ipcProcess[2].ipcAddress = "A"
**.R4I4.ipcProcess[3].difName = "4.4X4.a"
**.R4I4.ipcProcess[3].ipcAddress = "A"
**.R4I4.ipcProcess[4].difName = "4.4X4.e"
**.R4I4.ipcProcess[4].ipcAddress = "A"
**.R4I4.ipcProcess[5].difName = "3.8X4.4"
**.R4I4.ipcProcess[5].ipcAddress = "B"
**.R4I4.ipcProcess[6].difName = "4.4X5.1"
**.R4I4.ipcProcess[6].ipcAddress = "A"
**.R4I5.relayIpc.ipcAddress = "4.5"
**.R4I5.ipcProcess[0].difName = "4.2X4.5"
**.R4I5.ipcProcess[0].ipcAddress = "B"
**.R4I5.ipcProcess[1].difName = "4.3X4.5"
**.R4I5.ipcProcess[1].ipcAddress = "B"
**.R4I5.ipcProcess[2].difName = "4.4X4.5"
**.R4I5.ipcProcess[2].ipcAddress = "B"
**.R4I5.ipcProcess[3].difName = "4.5X4.6"
**.R4I5.ipcProcess[3].ipcAddress = "A"
**.R4I6.relayIpc.ipcAddress = "4.6"
**.R4I6.ipcProcess[0].difName = "4.1X4.6"
**.R4I6.ipcProcess[0].ipcAddress = "B"
**.R4I6.ipcProcess[1].difName = "4.2X4.6"
**.R4I6.ipcProcess[1].ipcAddress = "B"
**.R4I6.ipcProcess[2].difName = "4.5X4.6"
**.R4I6.ipcProcess[2].ipcAddress = "B"
**.R4I6.ipcProcess[3].difName = "4.6X4.8"
**.R4I6.ipcProcess[3].ipcAddress = "A"
**.R4I6.ipcProcess[4].difName = "4.6X4.9"
**.R4I6.ipcProcess[4].ipcAddress = "A"
**.R4I6.ipcProcess[5].difName = "4.6X4.a"
**.R4I6.ipcProcess[5].ipcAddress = "A"
**.R4I6.ipcProcess[6].difName = "4.6X4.b"
**.R4I6.ipcProcess[6].ipcAddress = "A"
**.R4I6.ipcProcess[7].difName = "4.6X5.a"
**.R4I6.ipcProcess[7].ipcAddress = "A"
**.R4I6.ipcProcess[8].difName = "4.6Xb.9"
**.R4I6.ipcProcess[8].ipcAddress = "A"
**.R4I6.ipcProcess[9].difName = "4.6Xb.a"
**.R4I6.ipcProcess[9].ipcAddress = "A"
**.R4I6.ipcProcess[10].difName = "4.6Xf.5"
**.R4I6.ipcProcess[10].ipcAddress = "A"
**.R4I7.relayIpc.ipcAddress = "4.7"
**.R4I7.ipcProcess[0].difName = "4.7X4.8"
**.R4I7.ipcProcess[0].ipcAddress = "A"
**.R4I7.ipcProcess[1].difName = "4.7X4.a"
**.R4I7.ipcProcess[1].ipcAddress = "A"
**.R4I7.ipcProcess[2].difName = "4.7X4.b"
**.R4I7.ipcProcess[2].ipcAddress = "A"
**.R4I7.ipcProcess[3].difName = "4.7X4.d"
**.R4I7.ipcProcess[3].ipcAddress = "A"
**.R4I8.relayIpc.ipcAddress = "4.8"
**.R4I8.ipcProcess[0].difName = "4.4X4.8"
**.R4I8.ipcProcess[0].ipcAddress = "B"
**.R4I8.ipcProcess[1].difName = "4.6X4.8"
**.R4I8.ipcProcess[1].ipcAddress = "B"
**.R4I8.ipcProcess[2].difName = "4.7X4.8"
**.R4I8.ipcProcess[2].ipcAddress = "B"
**.R4I9.relayIpc.ipcAddress = "4.9"
**.R4I9.ipcProcess[0].difName = "4.4X4.9"
**.R4I9.ipcProcess[0].ipcAddress = "B"
**.R4I9.ipcProcess[1].difName = "4.6X4.9"
**.R4I9.ipcProcess[1].ipcAddress = "B"
**.R4I9.ipcProcess[2].difName = "4.9X4.a"
**.R4I9.ipcProcess[2].ipcAddress = "A"
**.R4I9.ipcProcess[3].difName = "4.9X4.e"
**.R4I9.ipcProcess[3].ipcAddress = "A"
**.R4Ia.relayIpc.ipcAddress = "4.a"
**.R4Ia.ipcProcess[0].difName = "4.2X4.a"
**.R4Ia.ipcProcess[0].ipcAddress = "B"
**.R4Ia.ipcProcess[1].difName = "4.4X4.a"
**.R4Ia.ipcProcess[1].ipcAddress = "B"
**.R4Ia.ipcProcess[2].difName = "4.6X4.a"
**.R4Ia.ipcProcess[2].ipcAddress = "B"
**.R4Ia.ipcProcess[3].difName = "4.7X4.a"
**.R4Ia.ipcProcess[3].ipcAddress = "B"
**.R4Ia.ipcProcess[4].difName = "4.9X4.a"
**.R4Ia.ipcProcess[4].ipcAddress = "B"
**.R4Ia.ipcProcess[5].difName = "4.aX4.e"
**.R4Ia.ipcProcess[5].ipcAddress = "A"
**.R4Ib.relayIpc.ipcAddress = "4.b"
**.R4Ib.ipcProcess[0].difName = "4.2X4.b"
**.R4Ib.ipcProcess[0].ipcAddress = "B"
**.R4Ib.ipcProcess[1].difName = "4.6X4.b"
**.R4Ib.ipcProcess[1].ipcAddress = "B"
**.R4Ib.ipcProcess[2].difName = "4.7X4.b"
**.R4Ib.ipcProcess[2].ipcAddress = "B"
**.R4Ib.ipcProcess[3].difName = "4.bX4.e"
**.R4Ib.ipcProcess[3].ipcAddress = "A"
**.R4Ic.relayIpc.ipcAddress = "4.c"
**.R4Ic.ipcProcess[0].difName = "4.cX4.d"
**.R4Ic.ipcProcess[0].ipcAddress = "A"
**.R4Id.relayIpc.ipcAddress = "4.d"
**.R4Id.ipcProcess[0].difName = "4.1X4.d"
**.R4Id.ipcProcess[0].ipcAddress = "B"
**.R4Id.ipcProcess[1].difName = "4.7X4.d"
**.R4Id.ipcProcess[1].ipcAddress = "B"
**.R4Id.ipcProcess[2].difName = "4.cX4.d"
**.R4Id.ipcProcess[2].ipcAddress = "B"
**.R4Ie.relayIpc.ipcAddress = "4.e"
**.R4Ie.ipcProcess[0].difName = "4.1X4.e"
**.R4Ie.ipcProcess[0].ipcAddress = "B"
**.R4Ie.ipcProcess[1].difName = "4.4X4.e"
**.R4Ie.ipcProcess[1].ipcAddress = "B"
**.R4Ie.ipcProcess[2].difName = "4.9X4.e"
**.R4Ie.ipcProcess[2].ipcAddress = "B"
**.R4Ie.ipcProcess[3].difName = "4.aX4.e"
**.R4Ie.ipcProcess[3].ipcAddress = "B"
**.R4Ie.ipcProcess[4].difName = "4.bX4.e"
**.R4Ie.ipcProcess[4].ipcAddress = "B"
**.R4Ie.ipcProcess[5].difName = "3.5X4.e"
**.R4Ie.ipcProcess[5].ipcAddress = "B"
**.R4Ie.ipcProcess[6].difName = "4.eXb.a"
**.R4Ie.ipcProcess[6].ipcAddress = "A"
**.R5I1.relayIpc.ipcAddress = "5.1"
**.R5I1.ipcProcess[0].difName = "5.1X5.6"
**.R5I1.ipcProcess[0].ipcAddress = "A"
**.R5I1.ipcProcess[1].difName = "5.1X5.c"
**.R5I1.ipcProcess[1].ipcAddress = "A"
**.R5I1.ipcProcess[2].difName = "5.1X5.e"
**.R5I1.ipcProcess[2].ipcAddress = "A"
**.R5I1.ipcProcess[3].difName = "4.4X5.1"
**.R5I1.ipcProcess[3].ipcAddress = "B"
**.R5I1.ipcProcess[4].difName = "5.1X7.3"
**.R5I1.ipcProcess[4].ipcAddress = "A"
**.R5I1.ipcProcess[5].difName = "5.1X8.4"
**.R5I1.ipcProcess[5].ipcAddress = "A"
**.R5I2.relayIpc.ipcAddress = "5.2"
**.R5I2.ipcProcess[0].difName = "5.2X5.4"
**.R5I2.ipcProcess[0].ipcAddress = "A"
**.R5I2.ipcProcess[1].difName = "5.2X5.d"
**.R5I2.ipcProcess[1].ipcAddress = "A"
**.R5I3.relayIpc.ipcAddress = "5.3"
**.R5I3.ipcProcess[0].difName = "5.3X5.c"
**.R5I3.ipcProcess[0].ipcAddress = "A"
**.R5I3.ipcProcess[1].difName = "5.3X5.e"
**.R5I3.ipcProcess[1].ipcAddress = "A"
**.R5I3.ipcProcess[2].difName = "5.3X6.2"
**.R5I3.ipcProcess[2].ipcAddress = "A"
**.R5I3.ipcProcess[3].difName = "5.3X7.9"
**.R5I3.ipcProcess[3].ipcAddress = "A"
**.R5I3.ipcProcess[4].difName = "5.3X8.2"
**.R5I3.ipcProcess[4].ipcAddress = "A"
**.R5I3.ipcProcess[5].difName = "5.3X9.7"
**.R5I3.ipcProcess[5].ipcAddress = "A"
**.R5I3.ipcProcess[6].difName = "5.3Xb.a"
**.R5I3.ipcProcess[6].ipcAddress = "A"
**.R5I4.relayIpc.ipcAddress = "5.4"
**.R5I4.ipcProcess[0].difName = "5.2X5.4"
**.R5I4.ipcProcess[0].ipcAddress = "B"
**.R5I4.ipcProcess[1].difName = "5.4X5.7"
**.R5I4.ipcProcess[1].ipcAddress = "A"
**.R5I4.ipcProcess[2].difName = "5.4X5.8"
**.R5I4.ipcProcess[2].ipcAddress = "A"
**.R5I4.ipcProcess[3].difName = "5.4X5.a"
**.R5I4.ipcProcess[3].ipcAddress = "A"
**.R5I4.ipcProcess[4].difName = "5.4X5.b"
**.R5I4.ipcProcess[4].ipcAddress = "A"
**.R5I5.relayIpc.ipcAddress = "5.5"
**.R5I5.ipcProcess[0].difName = "5.5X5.a"
**.R5I5.ipcProcess[0].ipcAddress = "A"
**.R5I5.ipcProcess[1].difName = "5.5X5.d"
**.R5I5.ipcProcess[1].ipcAddress = "A"
**.R5I6.relayIpc.ipcAddress = "5.6"
**.R5I6.ipcProcess[0].difName = "5.1X5.6"
**.R5I6.ipcProcess[0].ipcAddress = "B"
**.R5I6.ipcProcess[1].difName = "5.6X5.8"
**.R5I6.ipcProcess[1].ipcAddress = "A"
**.R5I6.ipcProcess[2].difName = "5.6X5.e"
**.R5I6.ipcProcess[2].ipcAddress = "A"
**.R5I7.relayIpc.ipcAddress = "5.7"
**.R5I7.ipcProcess[0].difName = "5.4X5.7"
**.R5I7.ipcProcess[0].ipcAddress = "B"
**.R5I7.ipcProcess[1].difName = "5.7X5.8"
**.R5I7.ipcProcess[1].ipcAddress = "A"
**.R5I7.ipcProcess[2].difName = "5.7X5.c"
**.R5I7.ipcProcess[2].ipcAddress = "A"
**.R5I7.ipcProcess[3].difName = "5.7X5.d"
**.R5I7.ipcProcess[3].ipcAddress = "A"
**.R5I7.ipcProcess[4].difName = "5.7X5.f"
**.R5I7.ipcProcess[4].ipcAddress = "A"
**.R5I7.ipcProcess[5].difName = "4.1X5.7"
**.R5I7.ipcProcess[5].ipcAddress = "B"
**.R5I8.relayIpc.ipcAddress = "5.8"
**.R5I8.ipcProcess[0].difName = "5.4X5.8"
**.R5I8.ipcProcess[0].ipcAddress = "B"
**.R5I8.ipcProcess[1].difName = "5.6X5.8"
**.R5I8.ipcProcess[1].ipcAddress = "B"
**.R5I8.ipcProcess[2].difName = "5.7X5.8"
**.R5I8.ipcProcess[2].ipcAddress = "B"
**.R5I8.ipcProcess[3].difName = "5.8X5.a"
**.R5I8.ipcProcess[3].ipcAddress = "A"
**.R5I8.ipcProcess[4].difName = "5.8X5.b"
**.R5I8.ipcProcess[4].ipcAddress = "A"
**.R5I8.ipcProcess[5].difName = "5.8X5.d"
**.R5I8.ipcProcess[5].ipcAddress = "A"
**.R5I9.relayIpc.ipcAddress = "5.9"
**.R5I9.ipcProcess[0].difName = "5.9X5.a"
**.R5I9.ipcProcess[0].ipcAddress = "A"
**.R5I9.ipcProcess[1].difName = "5.9X5.b"
**.R5I9.ipcProcess[1].ipcAddress = "A"
**.R5Ia.relayIpc.ipcAddress = "5.a"
**.R5Ia.ipcProcess[0].difName = "5.4X5.a"
**.R5Ia.ipcProcess[0].ipcAddress = "B"
**.R5Ia.ipcProcess[1].difName = "5.5X5.a"
**.R5Ia.ipcProcess[1].ipcAddress = "B"
**.R5Ia.ipcProcess[2].difName = "5.8X5.a"
**.R5Ia.ipcProcess[2].ipcAddress = "B"
**.R5Ia.ipcProcess[3].difName = "5.9X5.a"
**.R5Ia.ipcProcess[3].ipcAddress = "B"
**.R5Ia.ipcProcess[4].difName = "5.aX5.c"
**.R5Ia.ipcProcess[4].ipcAddress = "A"
**.R5Ia.ipcProcess[5].difName = "5.aX5.e"
**.R5Ia.ipcProcess[5].ipcAddress = "A"
**.R5Ia.ipcProcess[6].difName = "4.6X5.a"
**.R5Ia.ipcProcess[6].ipcAddress = "B"
**.R5Ia.ipcProcess[7].difName = "5.aX6.3"
**.R5Ia.ipcProcess[7].ipcAddress = "A"
**.R5Ia.ipcProcess[8].difName = "5.aX6.a"
**.R5Ia.ipcProcess[8].ipcAddress = "A"
**.R5Ia.ipcProcess[9].difName = "5.aX8.2"
**.R5Ia.ipcProcess[9].ipcAddress = "A"
**.R5Ia.ipcProcess[10].difName = "5.aXb.5"
**.R5Ia.ipcProcess[10].ipcAddress = "A"
**.R5Ia.ipcProcess[11].difName = "5.aXb.a"
**.R5Ia.ipcProcess[11].ipcAddress = "A"
**.R5Ib.relayIpc.ipcAddress = "5.b"
**.R5Ib.ipcProcess[0].difName = "5.4X5.b"
**.R5Ib.ipcProcess[0].ipcAddress = "B"
**.R5Ib.ipcProcess[1].difName = "5.8X5.b"
**.R5Ib.ipcProcess[1].ipcAddress = "B"
**.R5Ib.ipcProcess[2].difName = "5.9X5.b"
**.R5Ib.ipcProcess[2].ipcAddress = "B"
**.R5Ib.ipcProcess[3].difName = "5.bX5.c"
**.R5Ib.ipcProcess[3].ipcAddress = "A"
**.R5Ib.ipcProcess[4].difName = "5.bX5.f"
**.R5Ib.ipcProcess[4].ipcAddress = "A"
**.R5Ic.relayIpc.ipcAddress = "5.c"
**.R5Ic.ipcProcess[0].difName = "5.1X5.c"
**.R5Ic.ipcProcess[0].ipcAddress = "B"
**.R5Ic.ipcProcess[1].difName = "5.3X5.c"
**.R5Ic.ipcProcess[1].ipcAddress = "B"
**.R5Ic.ipcProcess[2].difName = "5.7X5.c"
**.R5Ic.ipcProcess[2].ipcAddress = "B"
**.R5Ic.ipcProcess[3].difName = "5.aX5.c"
**.R5Ic.ipcProcess[3].ipcAddress = "B"
**.R5Ic.ipcProcess[4].difName = "5.bX5.c"
**.R5Ic.ipcProcess[4].ipcAddress = "B"
**.R5Ic.ipcProcess[5].difName = "5.cX5.f"
**.R5Ic.ipcProcess[5].ipcAddress = "A"
**.R5Id.relayIpc.ipcAddress = "5.d"
**.R5Id.ipcProcess[0].difName = "5.2X5.d"
**.R5Id.ipcProcess[0].ipcAddress = "B"
**.R5Id.ipcProcess[1].difName = "5.5X5.d"