[General]
debug-on-errors = true
sim-time-limit = 100min

[Config TwoNodes-Preallocated]
include ../../topologies/UseCase3.ini
**.isSelfEnrolled = true
**.ra.preallocation = \
    xmldoc("TwoNodes.xml", "Configuration/ConnectionSets/ConnectionSet[@id='TwoNodes-Preallocated']/")

[Config TwoNodes-Recursive]
include ../../topologies/UseCase3.ini
**.isSelfEnrolled = true
**.ra.preallocation = \
    xmldoc("TwoNodes.xml", "Configuration/ConnectionSets/ConnectionSet[@id='TwoNodes-Recursive']/")


[Config SimpleRelay-Preallocated]
include ../../topologies/UseCase4.ini
**.isSelfEnrolled = true
# flows to allocate at the beginning
**.ra.preallocation = \
    xmldoc("config.xml", "Configuration/ConnectionSets/ConnectionSet[@id='PingWithPreallocation']/")
