#--gaixas1: Not mine, not working ("destination gate already connecte" error), move to playground?

[General]
network = SimpleRelayCongestion
check-signals = true
sim-time-limit = 15min
debug-on-errors = true
seed-set = ${runnumber}

#Specify AE
**.host1.applicationProcess1.apName = "App1"
**.host2.applicationProcess1.apName = "App2"
**.applicationEntity.aeType = "AEMyPing"
**.iae.aeName = "Ping"

#Static addressing
**.host1.ipcProcess0.ipcAddress = "1"
**.host1.ipcProcess0.difName = "Layer01"
**.interiorRouter.ipcProcess0.ipcAddress = "3"
**.interiorRouter.ipcProcess0.difName = "Layer01"

**.host2.ipcProcess0.ipcAddress = "2"
**.host2.ipcProcess0.difName = "Layer02"
**.interiorRouter.ipcProcess1.ipcAddress = "4"
**.interiorRouter.ipcProcess1.difName = "Layer02"

**.host1.ipcProcess1.ipcAddress = "11"
**.host2.ipcProcess1.ipcAddress = "22"
**.host*.ipcProcess1.difName = "Layer11"
**.interiorRouter.relayIpc.ipcAddress = "33"
**.interiorRouter.relayIpc.difName = "Layer11"

#DIF Allocator settings
**.host1.difAllocator.configData = xmldoc("config.xml", "Configuration/Host[@id='host1']/DA")
**.host2.difAllocator.configData = xmldoc("config.xml", "Configuration/Host[@id='host2']/DA")
**.interiorRouter.difAllocator.configData = xmldoc("config.xml", "Configuration/Router[@id='interiorRouter']/DA")

#QoS Cube sets
**.ra.qoscubesData = xmldoc("config.xml", "Configuration/QoSCubesSet")
#**.ra.qosReqData  = xmldoc("config.xml", "Configuration/QoSReqSet")

#Enrollment settings
**.interiorRouter.**.enrollment.isSelfEnrolled = true
**.host2.ipcProcess1.enrollment.configData = xmldoc("config.xml", "Configuration/Host[@id='host2']/Enrollment")

#Specify timeout of CreateRequest message
#**.fa.createRequestTimeout = 15s
#**.host1.applicationProcess1.applicationEntity.iae.forceOrder = true

[Config CongestionPing]
fingerprint = "af9d-02e6"

#Specify AE
**.apType = "APPing"
**.host1.applicationProcess1.AEMonitor.**.iae.size = 256B

#This is  config for testing "slowDown" with EFCP, RMT, RA and RIBd
#PingApp setup
**.host1.applicationProcess1.apInst.dstApName = "App2"
**.host1.applicationProcess1.apInst.startAt = 10s
#**.host1.applicationProcess1.applicationEntity.iae.rate = 15
**.host1.applicationProcess1.apInst.stopAt = 250s


#Congestion parameters
**.interiorRouter.relayIpc.relayAndMux.defaultMaxQLength = 5
**.interiorRouter.relayIpc.relayAndMux.defaultThreshQLength = 3
**.interiorRouter.relayIpc.relayAndMux.maxQPolicyName = "REDDropper"
**.interiorRouter.relayIpc.relayAndMux.qMonitorPolicyName = "REDMonitor"

**.efcp.rtt = 25s
**.host1.ipcProcess1.efcp.efcp.initialSenderCredit = 50
**.interiorRouter.ipcProcess1.efcp.efcp.initialSenderCredit = 3
**.host2.ipcProcess0.efcp.efcp.rcvCredit = 3
**.interiorRouter.ipcProcess1.efcp.efcp.maxClosedWinQueLen = 4


[Config CongestionStream]
fingerprint = "be28-7aa7"

#Specify AE as Streaming app
**.apType = "APStream"
**.host1.applicationProcess1.AEMonitor.**.iae.size = 256B

#This is a configuration for testing "slowDown" with EFCP, RMT, RA and RIBd
#PingApp setup
**.host1.applicationProcess1.apInst.dstApName = "App2"
**.host1.applicationProcess1.apInst.startAt = 10s
**.host1.applicationProcess1.apInst.stopAt = 250s
**.host1.applicationProcess1.apInst.interval = 1s

#[Config CongestionStream]
#fingerprint = "c60f-f065"
#Specify AE as Streaming app
#**.applicationEntity.aeType = "AEStream"
#**.iae.aeName = "Stream"
#**.host1.applicationProcess1.applicationEntity.iae.size = 256B
#This is a configuration for testing "slowDown" with EFCP, RMT, RA and RIBd
#PingApp setup
#**.host1.applicationProcess1.applicationEntity.iae.dstApName = "App2"
#**.host1.applicationProcess1.applicationEntity.iae.dstAeName = "Stream"
#**.host1.applicationProcess1.applicationEntity.iae.startAt = 10s
#**.host1.applicationProcess1.applicationEntity.iae.beginStreamAt =  60s
#**.host1.applicationProcess1.applicationEntity.iae.endStreamAt =  200s
#**.host1.applicationProcess1.applicationEntity.iae.stopAt = 250s
#**.host1.applicationProcess1.applicationEntity.iae.interval = 1s




