[General]
network = UseCase1
debug-on-errors = true
sim-time-limit = 5min

**.ipcProcess0.ipcAddress = "1"
**.ipcProcess0.difName = "Layer0"
**.ipcProcess1.ipcAddress = "11"
**.ipcProcess1.difName = "Layer1"

**.host.difAllocator.configData = xmldoc("config.xml", "Configuration/Host[@id='host']/DA")
**.ra.qoscubesData = xmldoc("config.xml", "Configuration/QoSCubesSet")

[Config Ping]
fingerprint = "54f8-b9df"
**.applicationProcess1.apName = "Source"
**.applicationProcess2.apName = "Destination"
**.iae.forceOrder = true

**.apType = "APPing"

**.applicationProcess1.apInst.dstApName = "Destination"
**.applicationProcess1.apInst.startAt = 10s
**.applicationProcess1.apInst.stopAt = 20s