[General]
network = SimpleRelayShim
check-signals = true
repeat = 5
sim-time-limit = 5min
debug-on-errors = true
seed-set = ${runnumber}

**.host1.applicationProcess1.apName = "App1"
**.host2.applicationProcess1.apName = "App2"
**.apType = "APPing"

#Static addressing
**.host1.ipcProcessShim.ipcAddress = "1"
**.host2.ipcProcessShim.ipcAddress = "2"
**.interiorRouter.ipcProcessShim0.ipcAddress = "3"
**.interiorRouter.ipcProcessShim1.ipcAddress = "4"

**.host1.ipcProcess1.ipcAddress = "11"
**.host2.ipcProcess1.ipcAddress = "22"
**.interiorRouter.relayIpc.ipcAddress = "33"

**.host1.ipcProcessShim.difName = "50"
**.interiorRouter.ipcProcessShim0.difName = "50"

**.host2.ipcProcessShim.difName = "60"
**.interiorRouter.ipcProcessShim1.difName = "60"

**.host*.ipcProcess1.difName = "Layer11"
**.interiorRouter.relayIpc.difName = "Layer11"

#DIF Allocator settings
**.host1.difAllocator.configData = xmldoc("config.xml", "Configuration/Host[@id='host1']/DA")
**.host2.difAllocator.configData = xmldoc("config.xml", "Configuration/Host[@id='host2']/DA")
**.interiorRouter.difAllocator.configData = xmldoc("config.xml", "Configuration/Router[@id='interiorRouter']/DA")

#QoS Cube sets
**.ra.qoscubesData = xmldoc("config.xml", "Configuration/QoSCubesSet")

#Specify AEPing message size
**.host1.applicationProcess1.applicationEntity.iae.size = 256B

#Specify timeout of CreateRequest message
#**.fa.createRequestTimeout = 15s

**.printAtEnd = true

[Config Ping]
fingerprint = "529f-aef6"
#PingApp setup
**.host1.applicationProcess1.apInst.dstApName = "App2"
**.host1.applicationProcess1.apInst.startAt = 20s
**.host1.applicationProcess1.apInst.rate = 5
**.host1.applicationProcess1.apInst.stopAt = 200s

[Config PingRendez]
fingerprint = "4424-27ca"
#PingApp setup
**.host1.applicationProcess1.apInst.dstApName = "App2"
**.host1.applicationProcess1.apInst.startAt = 10s
**.host1.applicationProcess1.apInst.rate = 500
**.host1.applicationProcess1.apInst.stopAt = 200s
**.host2.ipcProcess1.efcp.interrupter = true

[Config PingWithDiffServ]
fingerprint = "00de-918f"
**.host1.applicationProcess1.apInst.dstApName = "App2"
**.host1.applicationProcess1.apInst.startAt = 10s
**.host1.applicationProcess1.apInst.rate = 5
**.host1.applicationProcess1.apInst.stopAt = 200s

# make all RMTs except the ones in relay IPCs differentiate PDUs by (N)-flow
**.host*.ipcProcess1.resourceAllocator.queueAllocPolicyName = "QueuePerNFlow"
**.host*.ipcProcess1.resourceAllocator.queueIdGenName = "IDPerNFlow"

# make relay IPCs' RMTs differentiate PDUs by their QoS
**.relayIpc.resourceAllocator.queueAllocPolicyName = "QueuePerNQoS"
**.relayIpc.resourceAllocator.queueIdGenName = "IDPerNQoS"

