[General]
network = net
sim-time-limit =  1min

**.pduTracing = false
**.scalar-recording = false
**.vector-recording = false
**.saveInvalidPDUs = false

**.difAllocator.directory.configData = xmldoc("directory.xml", "DA")
**.ra.preallocation = xmldoc("connectionset.xml", "ConnectionSet")
**.flowAllocator.newFlowReqPolicyType = "MinComparer"
**.isSelfEnrolled = true

**.relayIpc.resourceAllocator.pdufgPolicyName ="GRE_Simple"
**.relayIpc.relayAndMux.ForwardingPolicyName = "GREFWD"
**.relayIpc.routingPolicyName = "TSimpleLS"

**.relayIpc.**.ra.qoscubesData = xmldoc("qoscube.xml", "QoSCubesSet")
**.relayIpc.**.ra.qosReqData = xmldoc("qosreq.xml", "QoSReqSet")
**.ipcProcess[*].**.ra.qoscubesData = xmldoc("shimqoscube.xml", "QoSCubesSet")

**.relayIpc.difName = "Core"

**.N0.**.ipcAddress = "0"
**.N1.**.ipcAddress = "1"
**.N2.**.ipcAddress = "2"
**.N3.**.ipcAddress = "3"
**.N4.**.ipcAddress = "4"
**.N5.**.ipcAddress = "5"
**.N6.**.ipcAddress = "6"
**.N7.**.ipcAddress = "7"
**.N8.**.ipcAddress = "8"

**.N0.ipcProcess[0].difName = "0-1"
**.N0.ipcProcess[1].difName = "0-8"
**.N1.ipcProcess[0].difName = "0-1"
**.N1.ipcProcess[1].difName = "1-2"
**.N2.ipcProcess[0].difName = "1-2"
**.N2.ipcProcess[1].difName = "2-3"
**.N2.ipcProcess[2].difName = "2-5"
**.N3.ipcProcess[0].difName = "2-3"
**.N3.ipcProcess[1].difName = "3-5"
**.N3.ipcProcess[2].difName = "3-6"
**.N4.ipcProcess[0].difName = "4-6"
**.N4.ipcProcess[1].difName = "4-7"
**.N4.ipcProcess[2].difName = "4-8"
**.N5.ipcProcess[0].difName = "2-5"
**.N5.ipcProcess[1].difName = "3-5"
**.N6.ipcProcess[0].difName = "3-6"
**.N6.ipcProcess[1].difName = "4-6"
**.N6.ipcProcess[2].difName = "6-7"
**.N7.ipcProcess[0].difName = "4-7"
**.N7.ipcProcess[1].difName = "6-7"
**.N8.ipcProcess[0].difName = "0-8"
**.N8.ipcProcess[1].difName = "4-8"

**.N*.relayIpc.**.addrComparatorName = "NetTestComp"
**.N*.Inj.ini = 10
**.N*.Inj.wait = 0.01
**.N*.Inj.qos = "BE"
**.N*.Inj.data = xmldoc("infection.xml", "Infection/NodeList")
**.efcp.maxPDUSize = 100000B
**.efcp.maxSDUSize = 100000B
