[General]
network = SingleCS
check-signals = true
debug-on-errors = true
sim-time-limit = 5min

**.ipcProcess0.ipcAddress = "1"
**.ipcProcess0.difName = "Layer0"
**.ipcProcess1.ipcAddress = "11"
**.ipcProcess1.difName = "Layer1"

**.host.difAllocator.configData = xmldoc("config.xml", "Configuration/Host[@id='host']/DA")
**.ra.qoscubesData = xmldoc("config.xml", "Configuration/QoSCubesSet")

[Config Ping]
fingerprint = "4124-81fd"
**.applicationProcess1.apName = "App1"
**.applicationProcess2.apName = "App2"
**.iae.aeName = "Ping"
**.iae.forceOrder = true
**.applicationEntity.aeType = "AEPing"

**.applicationProcess1.applicationEntity.iae.dstApName = "App2"
**.applicationProcess1.applicationEntity.iae.dstAeName = "Ping"
**.applicationProcess1.applicationEntity.iae.startAt = 10s
**.applicationProcess1.applicationEntity.iae.pingAt =  15s
**.applicationProcess1.applicationEntity.iae.rate = 5
**.applicationProcess1.applicationEntity.iae.stopAt = 20s

