[General] 
network = SWDCLSScen100
sim-time-limit = 5min
repeat = 5
seed-set = ${repetition}
#**.scalar-recording =true
#**.vector-recording =true
#**.pduft-length.scalar-recording = true
#
# Appliction entities naming:
#
**.VIFIBN9.AP.apName = "App9"
 **.VIFIBN1.AP.apName = "App1"
 **.VIFIBN14.AP.apName = "App14"
 **.VIFIBN15.AP.apName = "App15"
 **.VIFIBN25.AP.apName = "App25"
 **.VIFIBN38.AP.apName = "App38"
 **.VIFIBN39.AP.apName = "App39"
 **.VIFIBN42.AP.apName = "App42"
 **.VIFIBN43.AP.apName = "App43"
 **.VIFIBN46.AP.apName = "App46"
 **.VIFIBN47.AP.apName = "App47"
 **.VIFIBN49.AP.apName = "App49"
 **.VIFIBN51.AP.apName = "App51"
 **.VIFIBN55.AP.apName = "App55"
 **.VIFIBN61.AP.apName = "App61"
 **.VIFIBN3.AP.apName = "App3"
 **.VIFIBN2.AP.apName = "App2"
 **.VIFIBN4.AP.apName = "App4"
 **.VIFIBN5.AP.apName = "App5"
 **.VIFIBN7.AP.apName = "App7"
 **.VIFIBN20.AP.apName = "App20"
 **.VIFIBN26.AP.apName = "App26"
 **.VIFIBN28.AP.apName = "App28"
 **.VIFIBN29.AP.apName = "App29"
 **.VIFIBN36.AP.apName = "App36"
 **.VIFIBN37.AP.apName = "App37"
 **.VIFIBN6.AP.apName = "App6"
 **.VIFIBN16.AP.apName = "App16"
 **.VIFIBN24.AP.apName = "App24"
 **.VIFIBN33.AP.apName = "App33"
 **.VIFIBN41.AP.apName = "App41"
 **.VIFIBN44.AP.apName = "App44"
 **.VIFIBN63.AP.apName = "App63"
 **.VIFIBN72.AP.apName = "App72"
 **.VIFIBN23.AP.apName = "App23"
 **.VIFIBN40.AP.apName = "App40"
 **.VIFIBN57.AP.apName = "App57"
 **.VIFIBN64.AP.apName = "App64"
 **.VIFIBN69.AP.apName = "App69"
 **.VIFIBN79.AP.apName = "App79"
 **.VIFIBN80.AP.apName = "App80"
 **.VIFIBN81.AP.apName = "App81"
 **.VIFIBN91.AP.apName = "App91"
 **.VIFIBN93.AP.apName = "App93"
 **.VIFIBN94.AP.apName = "App94"
 **.VIFIBN22.AP.apName = "App22"
 **.VIFIBN35.AP.apName = "App35"
 **.VIFIBN12.AP.apName = "App12"
 **.VIFIBN19.AP.apName = "App19"
 **.VIFIBN34.AP.apName = "App34"
 **.VIFIBN53.AP.apName = "App53"
 **.VIFIBN68.AP.apName = "App68"
 **.VIFIBN71.AP.apName = "App71"
 **.VIFIBN10.AP.apName = "App10"
 **.VIFIBN32.AP.apName = "App32"
 **.VIFIBN45.AP.apName = "App45"
 **.VIFIBN56.AP.apName = "App56"
 **.VIFIBN60.AP.apName = "App60"
 **.VIFIBN8.AP.apName = "App8"
 **.VIFIBN11.AP.apName = "App11"
 **.VIFIBN31.AP.apName = "App31"
 **.VIFIBN48.AP.apName = "App48"
 **.VIFIBN21.AP.apName = "App21"
 **.VIFIBN13.AP.apName = "App13"
 **.VIFIBN17.AP.apName = "App17"
 **.VIFIBN58.AP.apName = "App58"
 **.VIFIBN59.AP.apName = "App59"
 **.VIFIBN62.AP.apName = "App62"
 **.VIFIBN66.AP.apName = "App66"
 **.VIFIBN77.AP.apName = "App77"
 **.VIFIBN50.AP.apName = "App50"
 **.VIFIBN67.AP.apName = "App67"
 **.VIFIBN27.AP.apName = "App27"
 **.VIFIBN52.AP.apName = "App52"
 **.VIFIBN30.AP.apName = "App30"
 **.VIFIBN88.AP.apName = "App88"
 **.VIFIBN18.AP.apName = "App18"
 **.VIFIBN54.AP.apName = "App54"
 **.VIFIBN73.AP.apName = "App73"
 **.VIFIBN75.AP.apName = "App75"
 **.VIFIBN76.AP.apName = "App76"
 **.VIFIBN78.AP.apName = "App78"
 **.VIFIBN89.AP.apName = "App89"
 **.VIFIBN65.AP.apName = "App65"
 **.VIFIBN70.AP.apName = "App70"
 **.VIFIBN84.AP.apName = "App84"
 **.VIFIBN86.AP.apName = "App86"
 **.VIFIBN74.AP.apName = "App74"
 **.VIFIBN87.AP.apName = "App87"
 **.VIFIBN90.AP.apName = "App90"
 **.VIFIBN95.AP.apName = "App95"
 **.VIFIBN97.AP.apName = "App97"
 **.VIFIBN82.AP.apName = "App82"
 **.VIFIBN92.AP.apName = "App92"
 **.VIFIBN85.AP.apName = "App85"
 **.VIFIBN83.AP.apName = "App83"
 **.VIFIBN98.AP.apName = "App98"
 **.VIFIBN96.AP.apName = "App96"
 **.VIFIBN100.AP.apName = "App100"
 **.VIFIBN99.AP.apName = "App99"
**.applicationEntity.aeType 	= "AEMyPing"
**.iae.aeName 			= "MyPing"


**.VIFIBN1.ShimIPC0.difName 		= "Shim1To14"
**.VIFIBN1.ShimIPC0.ipcAddress 	 	    = "1"
**.VIFIBN14.ShimIPC0.difName 		= "Shim1To14"
**.VIFIBN14.ShimIPC0.ipcAddress 	 	    = "2"
**.VIFIBN1.ShimIPC1.difName 		= "Shim1To15"
**.VIFIBN1.ShimIPC1.ipcAddress 	 	    = "1"
**.VIFIBN15.ShimIPC0.difName 		= "Shim1To15"
**.VIFIBN15.ShimIPC0.ipcAddress 	 	    = "2"
**.VIFIBN1.ShimIPC2.difName 		= "Shim1To25"
**.VIFIBN1.ShimIPC2.ipcAddress 	 	    = "1"
**.VIFIBN25.ShimIPC0.difName 		= "Shim1To25"
**.VIFIBN25.ShimIPC0.ipcAddress 	 	    = "2"
**.VIFIBN1.ShimIPC3.difName 		= "Shim1To38"
**.VIFIBN1.ShimIPC3.ipcAddress 	 	    = "1"
**.VIFIBN38.ShimIPC0.difName 		= "Shim1To38"
**.VIFIBN38.ShimIPC0.ipcAddress 	 	    = "2"
**.VIFIBN1.ShimIPC4.difName 		= "Shim1To39"
**.VIFIBN1.ShimIPC4.ipcAddress 	 	    = "1"
**.VIFIBN39.ShimIPC0.difName 		= "Shim1To39"
**.VIFIBN39.ShimIPC0.ipcAddress 	 	    = "2"
**.VIFIBN1.ShimIPC5.difName 		= "Shim1To42"
**.VIFIBN1.ShimIPC5.ipcAddress 	 	    = "1"
**.VIFIBN42.ShimIPC0.difName 		= "Shim1To42"
**.VIFIBN42.ShimIPC0.ipcAddress 	 	    = "2"
**.VIFIBN1.ShimIPC6.difName 		= "Shim1To43"
**.VIFIBN1.ShimIPC6.ipcAddress 	 	    = "1"
**.VIFIBN43.ShimIPC0.difName 		= "Shim1To43"
**.VIFIBN43.ShimIPC0.ipcAddress 	 	    = "2"
**.VIFIBN1.ShimIPC7.difName 		= "Shim1To46"
**.VIFIBN1.ShimIPC7.ipcAddress 	 	    = "1"
**.VIFIBN46.ShimIPC0.difName 		= "Shim1To46"
**.VIFIBN46.ShimIPC0.ipcAddress 	 	    = "2"
**.VIFIBN1.ShimIPC8.difName 		= "Shim1To47"
**.VIFIBN1.ShimIPC8.ipcAddress 	 	    = "1"
**.VIFIBN47.ShimIPC0.difName 		= "Shim1To47"
**.VIFIBN47.ShimIPC0.ipcAddress 	 	    = "2"
**.VIFIBN1.ShimIPC9.difName 		= "Shim1To49"
**.VIFIBN1.ShimIPC9.ipcAddress 	 	    = "1"
**.VIFIBN49.ShimIPC0.difName 		= "Shim1To49"
**.VIFIBN49.ShimIPC0.ipcAddress 	 	    = "2"
**.VIFIBN1.ShimIPC10.difName 		= "Shim1To51"
**.VIFIBN1.ShimIPC10.ipcAddress 	 	    = "1"
**.VIFIBN51.ShimIPC0.difName 		= "Shim1To51"
**.VIFIBN51.ShimIPC0.ipcAddress 	 	    = "2"
**.VIFIBN1.ShimIPC11.difName 		= "Shim1To55"
**.VIFIBN1.ShimIPC11.ipcAddress 	 	    = "1"
**.VIFIBN55.ShimIPC0.difName 		= "Shim1To55"
**.VIFIBN55.ShimIPC0.ipcAddress 	 	    = "2"
**.VIFIBN1.ShimIPC12.difName 		= "Shim1To61"
**.VIFIBN1.ShimIPC12.ipcAddress 	 	    = "1"
**.VIFIBN61.ShimIPC0.difName 		= "Shim1To61"
**.VIFIBN61.ShimIPC0.ipcAddress 	 	    = "2"
**.VIFIBN1.ShimIPC13.difName 		= "Shim1To13"
**.VIFIBN1.ShimIPC13.ipcAddress 	 	    = "1"
**.VIFIBN13.ShimIPC0.difName 		= "Shim1To13"
**.VIFIBN13.ShimIPC0.ipcAddress 	 	    = "2"
**.VIFIBN1.ShimIPC14.difName 		= "Shim1To18"
**.VIFIBN1.ShimIPC14.ipcAddress 	 	    = "1"
**.VIFIBN18.ShimIPC0.difName 		= "Shim1To18"
**.VIFIBN18.ShimIPC0.ipcAddress 	 	    = "2"
**.VIFIBN1.ShimIPC15.difName 		= "Shim1To22"
**.VIFIBN1.ShimIPC15.ipcAddress 	 	    = "1"
**.VIFIBN22.ShimIPC0.difName 		= "Shim1To22"
**.VIFIBN22.ShimIPC0.ipcAddress 	 	    = "2"
**.VIFIBN1.ShimIPC16.difName 		= "Shim1To24"
**.VIFIBN1.ShimIPC16.ipcAddress 	 	    = "1"
**.VIFIBN24.ShimIPC0.difName 		= "Shim1To24"
**.VIFIBN24.ShimIPC0.ipcAddress 	 	    = "2"
**.VIFIBN2.ShimIPC0.difName 		= "Shim2To4"
**.VIFIBN2.ShimIPC0.ipcAddress 	 	    = "1"
**.VIFIBN4.ShimIPC0.difName 		= "Shim2To4"
**.VIFIBN4.ShimIPC0.ipcAddress 	 	    = "2"
**.VIFIBN2.ShimIPC1.difName 		= "Shim2To5"
**.VIFIBN2.ShimIPC1.ipcAddress 	 	    = "1"
**.VIFIBN5.ShimIPC0.difName 		= "Shim2To5"
**.VIFIBN5.ShimIPC0.ipcAddress 	 	    = "2"
**.VIFIBN2.ShimIPC2.difName 		= "Shim2To7"
**.VIFIBN2.ShimIPC2.ipcAddress 	 	    = "1"
**.VIFIBN7.ShimIPC0.difName 		= "Shim2To7"
**.VIFIBN7.ShimIPC0.ipcAddress 	 	    = "2"
**.VIFIBN2.ShimIPC3.difName 		= "Shim2To20"
**.VIFIBN2.ShimIPC3.ipcAddress 	 	    = "1"
**.VIFIBN20.ShimIPC0.difName 		= "Shim2To20"
**.VIFIBN20.ShimIPC0.ipcAddress 	 	    = "2"
**.VIFIBN2.ShimIPC4.difName 		= "Shim2To26"
**.VIFIBN2.ShimIPC4.ipcAddress 	 	    = "1"
**.VIFIBN26.ShimIPC0.difName 		= "Shim2To26"
**.VIFIBN26.ShimIPC0.ipcAddress 	 	    = "2"
**.VIFIBN2.ShimIPC5.difName 		= "Shim2To28"
**.VIFIBN2.ShimIPC5.ipcAddress 	 	    = "1"
**.VIFIBN28.ShimIPC0.difName 		= "Shim2To28"
**.VIFIBN28.ShimIPC0.ipcAddress 	 	    = "2"
**.VIFIBN2.ShimIPC6.difName 		= "Shim2To29"
**.VIFIBN2.ShimIPC6.ipcAddress 	 	    = "1"
**.VIFIBN29.ShimIPC0.difName 		= "Shim2To29"
**.VIFIBN29.ShimIPC0.ipcAddress 	 	    = "2"
**.VIFIBN2.ShimIPC7.difName 		= "Shim2To36"
**.VIFIBN2.ShimIPC7.ipcAddress 	 	    = "1"
**.VIFIBN36.ShimIPC0.difName 		= "Shim2To36"
**.VIFIBN36.ShimIPC0.ipcAddress 	 	    = "2"
**.VIFIBN2.ShimIPC8.difName 		= "Shim2To37"
**.VIFIBN2.ShimIPC8.ipcAddress 	 	    = "1"
**.VIFIBN37.ShimIPC0.difName 		= "Shim2To37"
**.VIFIBN37.ShimIPC0.ipcAddress 	 	    = "2"
**.VIFIBN2.ShimIPC9.difName 		= "Shim2To10"
**.VIFIBN2.ShimIPC9.ipcAddress 	 	    = "1"
**.VIFIBN10.ShimIPC0.difName 		= "Shim2To10"
**.VIFIBN10.ShimIPC0.ipcAddress 	 	    = "2"
**.VIFIBN2.ShimIPC10.difName 		= "Shim2To16"
**.VIFIBN2.ShimIPC10.ipcAddress 	 	    = "1"
**.VIFIBN16.ShimIPC0.difName 		= "Shim2To16"
**.VIFIBN16.ShimIPC0.ipcAddress 	 	    = "2"
**.VIFIBN3.ShimIPC0.difName 		= "Shim3To2"
**.VIFIBN3.ShimIPC0.ipcAddress 	 	    = "1"
**.VIFIBN2.ShimIPC11.difName 		= "Shim3To2"
**.VIFIBN2.ShimIPC11.ipcAddress 	 	    = "2"
**.VIFIBN3.ShimIPC1.difName 		= "Shim3To6"
**.VIFIBN3.ShimIPC1.ipcAddress 	 	    = "1"
**.VIFIBN6.ShimIPC0.difName 		= "Shim3To6"
**.VIFIBN6.ShimIPC0.ipcAddress 	 	    = "2"
**.VIFIBN3.ShimIPC2.difName 		= "Shim3To16"
**.VIFIBN3.ShimIPC2.ipcAddress 	 	    = "1"
**.VIFIBN16.ShimIPC1.difName 		= "Shim3To16"
**.VIFIBN16.ShimIPC1.ipcAddress 	 	    = "2"
**.VIFIBN3.ShimIPC3.difName 		= "Shim3To24"
**.VIFIBN3.ShimIPC3.ipcAddress 	 	    = "1"
**.VIFIBN24.ShimIPC1.difName 		= "Shim3To24"
**.VIFIBN24.ShimIPC1.ipcAddress 	 	    = "2"
**.VIFIBN3.ShimIPC4.difName 		= "Shim3To33"
**.VIFIBN3.ShimIPC4.ipcAddress 	 	    = "1"
**.VIFIBN33.ShimIPC0.difName 		= "Shim3To33"
**.VIFIBN33.ShimIPC0.ipcAddress 	 	    = "2"
**.VIFIBN3.ShimIPC5.difName 		= "Shim3To36"
**.VIFIBN3.ShimIPC5.ipcAddress 	 	    = "1"
**.VIFIBN36.ShimIPC1.difName 		= "Shim3To36"
**.VIFIBN36.ShimIPC1.ipcAddress 	 	    = "2"
**.VIFIBN3.ShimIPC6.difName 		= "Shim3To41"
**.VIFIBN3.ShimIPC6.ipcAddress 	 	    = "1"
**.VIFIBN41.ShimIPC0.difName 		= "Shim3To41"
**.VIFIBN41.ShimIPC0.ipcAddress 	 	    = "2"
**.VIFIBN3.ShimIPC7.difName 		= "Shim3To44"
**.VIFIBN3.ShimIPC7.ipcAddress 	 	    = "1"
**.VIFIBN44.ShimIPC0.difName 		= "Shim3To44"
**.VIFIBN44.ShimIPC0.ipcAddress 	 	    = "2"
**.VIFIBN3.ShimIPC8.difName 		= "Shim3To63"
**.VIFIBN3.ShimIPC8.ipcAddress 	 	    = "1"
**.VIFIBN63.ShimIPC0.difName 		= "Shim3To63"
**.VIFIBN63.ShimIPC0.ipcAddress 	 	    = "2"
**.VIFIBN3.ShimIPC9.difName 		= "Shim3To72"
**.VIFIBN3.ShimIPC9.ipcAddress 	 	    = "1"
**.VIFIBN72.ShimIPC0.difName 		= "Shim3To72"
**.VIFIBN72.ShimIPC0.ipcAddress 	 	    = "2"
**.VIFIBN3.ShimIPC10.difName 		= "Shim3To5"
**.VIFIBN3.ShimIPC10.ipcAddress 	 	    = "1"
**.VIFIBN5.ShimIPC1.difName 		= "Shim3To5"
**.VIFIBN5.ShimIPC1.ipcAddress 	 	    = "2"
**.VIFIBN3.ShimIPC11.difName 		= "Shim3To10"
**.VIFIBN3.ShimIPC11.ipcAddress 	 	    = "1"
**.VIFIBN10.ShimIPC1.difName 		= "Shim3To10"
**.VIFIBN10.ShimIPC1.ipcAddress 	 	    = "2"
**.VIFIBN3.ShimIPC12.difName 		= "Shim3To11"
**.VIFIBN3.ShimIPC12.ipcAddress 	 	    = "1"
**.VIFIBN11.ShimIPC0.difName 		= "Shim3To11"
**.VIFIBN11.ShimIPC0.ipcAddress 	 	    = "2"
**.VIFIBN3.ShimIPC13.difName 		= "Shim3To13"
**.VIFIBN3.ShimIPC13.ipcAddress 	 	    = "1"
**.VIFIBN13.ShimIPC1.difName 		= "Shim3To13"
**.VIFIBN13.ShimIPC1.ipcAddress 	 	    = "2"
**.VIFIBN4.ShimIPC1.difName 		= "Shim4To5"
**.VIFIBN4.ShimIPC1.ipcAddress 	 	    = "1"
**.VIFIBN5.ShimIPC2.difName 		= "Shim4To5"
**.VIFIBN5.ShimIPC2.ipcAddress 	 	    = "2"
**.VIFIBN4.ShimIPC2.difName 		= "Shim4To23"
**.VIFIBN4.ShimIPC2.ipcAddress 	 	    = "1"
**.VIFIBN23.ShimIPC0.difName 		= "Shim4To23"
**.VIFIBN23.ShimIPC0.ipcAddress 	 	    = "2"
**.VIFIBN4.ShimIPC3.difName 		= "Shim4To28"
**.VIFIBN4.ShimIPC3.ipcAddress 	 	    = "1"
**.VIFIBN28.ShimIPC1.difName 		= "Shim4To28"
**.VIFIBN28.ShimIPC1.ipcAddress 	 	    = "2"
**.VIFIBN4.ShimIPC4.difName 		= "Shim4To40"
**.VIFIBN4.ShimIPC4.ipcAddress 	 	    = "1"
**.VIFIBN40.ShimIPC0.difName 		= "Shim4To40"
**.VIFIBN40.ShimIPC0.ipcAddress 	 	    = "2"
**.VIFIBN4.ShimIPC5.difName 		= "Shim4To57"
**.VIFIBN4.ShimIPC5.ipcAddress 	 	    = "1"
**.VIFIBN57.ShimIPC0.difName 		= "Shim4To57"
**.VIFIBN57.ShimIPC0.ipcAddress 	 	    = "2"
**.VIFIBN4.ShimIPC6.difName 		= "Shim4To64"
**.VIFIBN4.ShimIPC6.ipcAddress 	 	    = "1"
**.VIFIBN64.ShimIPC0.difName 		= "Shim4To64"
**.VIFIBN64.ShimIPC0.ipcAddress 	 	    = "2"
**.VIFIBN4.ShimIPC7.difName 		= "Shim4To69"
**.VIFIBN4.ShimIPC7.ipcAddress 	 	    = "1"
**.VIFIBN69.ShimIPC0.difName 		= "Shim4To69"
**.VIFIBN69.ShimIPC0.ipcAddress 	 	    = "2"
**.VIFIBN4.ShimIPC8.difName 		= "Shim4To79"
**.VIFIBN4.ShimIPC8.ipcAddress 	 	    = "1"
**.VIFIBN79.ShimIPC0.difName 		= "Shim4To79"
**.VIFIBN79.ShimIPC0.ipcAddress 	 	    = "2"
**.VIFIBN4.ShimIPC9.difName 		= "Shim4To80"
**.VIFIBN4.ShimIPC9.ipcAddress 	 	    = "1"
**.VIFIBN80.ShimIPC0.difName 		= "Shim4To80"
**.VIFIBN80.ShimIPC0.ipcAddress 	 	    = "2"
**.VIFIBN4.ShimIPC10.difName 		= "Shim4To81"
**.VIFIBN4.ShimIPC10.ipcAddress 	 	    = "1"
**.VIFIBN81.ShimIPC0.difName 		= "Shim4To81"
**.VIFIBN81.ShimIPC0.ipcAddress 	 	    = "2"
**.VIFIBN4.ShimIPC11.difName 		= "Shim4To91"
**.VIFIBN4.ShimIPC11.ipcAddress 	 	    = "1"
**.VIFIBN91.ShimIPC0.difName 		= "Shim4To91"
**.VIFIBN91.ShimIPC0.ipcAddress 	 	    = "2"
**.VIFIBN4.ShimIPC12.difName 		= "Shim4To93"
**.VIFIBN4.ShimIPC12.ipcAddress 	 	    = "1"
**.VIFIBN93.ShimIPC0.difName 		= "Shim4To93"
**.VIFIBN93.ShimIPC0.ipcAddress 	 	    = "2"
**.VIFIBN4.ShimIPC13.difName 		= "Shim4To94"
**.VIFIBN4.ShimIPC13.ipcAddress 	 	    = "1"
**.VIFIBN94.ShimIPC0.difName 		= "Shim4To94"
**.VIFIBN94.ShimIPC0.ipcAddress 	 	    = "2"
**.VIFIBN4.ShimIPC14.difName 		= "Shim4To7"
**.VIFIBN4.ShimIPC14.ipcAddress 	 	    = "1"
**.VIFIBN7.ShimIPC1.difName 		= "Shim4To7"
**.VIFIBN7.ShimIPC1.ipcAddress 	 	    = "2"
**.VIFIBN4.ShimIPC15.difName 		= "Shim4To11"
**.VIFIBN4.ShimIPC15.ipcAddress 	 	    = "1"
**.VIFIBN11.ShimIPC1.difName 		= "Shim4To11"
**.VIFIBN11.ShimIPC1.ipcAddress 	 	    = "2"
**.VIFIBN5.ShimIPC3.difName 		= "Shim5To22"
**.VIFIBN5.ShimIPC3.ipcAddress 	 	    = "1"
**.VIFIBN22.ShimIPC1.difName 		= "Shim5To22"
**.VIFIBN22.ShimIPC1.ipcAddress 	 	    = "2"
**.VIFIBN5.ShimIPC4.difName 		= "Shim5To29"
**.VIFIBN5.ShimIPC4.ipcAddress 	 	    = "1"
**.VIFIBN29.ShimIPC1.difName 		= "Shim5To29"
**.VIFIBN29.ShimIPC1.ipcAddress 	 	    = "2"
**.VIFIBN5.ShimIPC5.difName 		= "Shim5To35"
**.VIFIBN5.ShimIPC5.ipcAddress 	 	    = "1"
**.VIFIBN35.ShimIPC0.difName 		= "Shim5To35"
**.VIFIBN35.ShimIPC0.ipcAddress 	 	    = "2"
**.VIFIBN5.ShimIPC6.difName 		= "Shim5To6"
**.VIFIBN5.ShimIPC6.ipcAddress 	 	    = "1"
**.VIFIBN6.ShimIPC1.difName 		= "Shim5To6"
**.VIFIBN6.ShimIPC1.ipcAddress 	 	    = "2"
**.VIFIBN5.ShimIPC7.difName 		= "Shim5To16"
**.VIFIBN5.ShimIPC7.ipcAddress 	 	    = "1"
**.VIFIBN16.ShimIPC2.difName 		= "Shim5To16"
**.VIFIBN16.ShimIPC2.ipcAddress 	 	    = "2"
**.VIFIBN5.ShimIPC8.difName 		= "Shim5To17"
**.VIFIBN5.ShimIPC8.ipcAddress 	 	    = "1"
**.VIFIBN17.ShimIPC0.difName 		= "Shim5To17"
**.VIFIBN17.ShimIPC0.ipcAddress 	 	    = "2"
**.VIFIBN5.ShimIPC9.difName 		= "Shim5To21"
**.VIFIBN5.ShimIPC9.ipcAddress 	 	    = "1"
**.VIFIBN21.ShimIPC0.difName 		= "Shim5To21"
**.VIFIBN21.ShimIPC0.ipcAddress 	 	    = "2"
**.VIFIBN6.ShimIPC2.difName 		= "Shim6To12"
**.VIFIBN6.ShimIPC2.ipcAddress 	 	    = "1"
**.VIFIBN12.ShimIPC0.difName 		= "Shim6To12"
**.VIFIBN12.ShimIPC0.ipcAddress 	 	    = "2"
**.VIFIBN6.ShimIPC3.difName 		= "Shim6To19"
**.VIFIBN6.ShimIPC3.ipcAddress 	 	    = "1"
**.VIFIBN19.ShimIPC0.difName 		= "Shim6To19"
**.VIFIBN19.ShimIPC0.ipcAddress 	 	    = "2"
**.VIFIBN6.ShimIPC4.difName 		= "Shim6To34"
**.VIFIBN6.ShimIPC4.ipcAddress 	 	    = "1"
**.VIFIBN34.ShimIPC0.difName 		= "Shim6To34"
**.VIFIBN34.ShimIPC0.ipcAddress 	 	    = "2"
**.VIFIBN6.ShimIPC5.difName 		= "Shim6To53"
**.VIFIBN6.ShimIPC5.ipcAddress 	 	    = "1"
**.VIFIBN53.ShimIPC0.difName 		= "Shim6To53"
**.VIFIBN53.ShimIPC0.ipcAddress 	 	    = "2"
**.VIFIBN6.ShimIPC6.difName 		= "Shim6To63"
**.VIFIBN6.ShimIPC6.ipcAddress 	 	    = "1"
**.VIFIBN63.ShimIPC1.difName 		= "Shim6To63"
**.VIFIBN63.ShimIPC1.ipcAddress 	 	    = "2"
**.VIFIBN6.ShimIPC7.difName 		= "Shim6To68"
**.VIFIBN6.ShimIPC7.ipcAddress 	 	    = "1"
**.VIFIBN68.ShimIPC0.difName 		= "Shim6To68"
**.VIFIBN68.ShimIPC0.ipcAddress 	 	    = "2"
**.VIFIBN6.ShimIPC8.difName 		= "Shim6To71"
**.VIFIBN6.ShimIPC8.ipcAddress 	 	    = "1"
**.VIFIBN71.ShimIPC0.difName 		= "Shim6To71"
**.VIFIBN71.ShimIPC0.ipcAddress 	 	    = "2"
**.VIFIBN6.ShimIPC9.difName 		= "Shim6To11"
**.VIFIBN6.ShimIPC9.ipcAddress 	 	    = "1"
**.VIFIBN11.ShimIPC2.difName 		= "Shim6To11"
**.VIFIBN11.ShimIPC2.ipcAddress 	 	    = "2"
**.VIFIBN7.ShimIPC2.difName 		= "Shim7To10"
**.VIFIBN7.ShimIPC2.ipcAddress 	 	    = "1"
**.VIFIBN10.ShimIPC2.difName 		= "Shim7To10"
**.VIFIBN10.ShimIPC2.ipcAddress 	 	    = "2"
**.VIFIBN7.ShimIPC3.difName 		= "Shim7To24"
**.VIFIBN7.ShimIPC3.ipcAddress 	 	    = "1"
**.VIFIBN24.ShimIPC2.difName 		= "Shim7To24"
**.VIFIBN24.ShimIPC2.ipcAddress 	 	    = "2"
**.VIFIBN7.ShimIPC4.difName 		= "Shim7To32"
**.VIFIBN7.ShimIPC4.ipcAddress 	 	    = "1"
**.VIFIBN32.ShimIPC0.difName 		= "Shim7To32"
**.VIFIBN32.ShimIPC0.ipcAddress 	 	    = "2"
**.VIFIBN7.ShimIPC5.difName 		= "Shim7To37"
**.VIFIBN7.ShimIPC5.ipcAddress 	 	    = "1"
**.VIFIBN37.ShimIPC1.difName 		= "Shim7To37"
**.VIFIBN37.ShimIPC1.ipcAddress 	 	    = "2"
**.VIFIBN7.ShimIPC6.difName 		= "Shim7To40"
**.VIFIBN7.ShimIPC6.ipcAddress 	 	    = "1"
**.VIFIBN40.ShimIPC1.difName 		= "Shim7To40"
**.VIFIBN40.ShimIPC1.ipcAddress 	 	    = "2"
**.VIFIBN7.ShimIPC7.difName 		= "Shim7To41"
**.VIFIBN7.ShimIPC7.ipcAddress 	 	    = "1"
**.VIFIBN41.ShimIPC1.difName 		= "Shim7To41"
**.VIFIBN41.ShimIPC1.ipcAddress 	 	    = "2"
**.VIFIBN7.ShimIPC8.difName 		= "Shim7To44"
**.VIFIBN7.ShimIPC8.ipcAddress 	 	    = "1"
**.VIFIBN44.ShimIPC1.difName 		= "Shim7To44"
**.VIFIBN44.ShimIPC1.ipcAddress 	 	    = "2"
**.VIFIBN7.ShimIPC9.difName 		= "Shim7To45"
**.VIFIBN7.ShimIPC9.ipcAddress 	 	    = "1"
**.VIFIBN45.ShimIPC0.difName 		= "Shim7To45"
**.VIFIBN45.ShimIPC0.ipcAddress 	 	    = "2"
**.VIFIBN7.ShimIPC10.difName 		= "Shim7To56"
**.VIFIBN7.ShimIPC10.ipcAddress 	 	    = "1"
**.VIFIBN56.ShimIPC0.difName 		= "Shim7To56"
**.VIFIBN56.ShimIPC0.ipcAddress 	 	    = "2"
**.VIFIBN7.ShimIPC11.difName 		= "Shim7To60"
**.VIFIBN7.ShimIPC11.ipcAddress 	 	    = "1"
**.VIFIBN60.ShimIPC0.difName 		= "Shim7To60"
**.VIFIBN60.ShimIPC0.ipcAddress 	 	    = "2"
**.VIFIBN7.ShimIPC12.difName 		= "Shim7To6"
**.VIFIBN7.ShimIPC12.ipcAddress 	 	    = "1"
**.VIFIBN6.ShimIPC10.difName 		= "Shim7To6"
**.VIFIBN6.ShimIPC10.ipcAddress 	 	    = "2"
**.VIFIBN8.ShimIPC0.difName 		= "Shim8To11"
**.VIFIBN8.ShimIPC0.ipcAddress 	 	    = "1"
**.VIFIBN11.ShimIPC3.difName 		= "Shim8To11"
**.VIFIBN11.ShimIPC3.ipcAddress 	 	    = "2"
**.VIFIBN8.ShimIPC1.difName 		= "Shim8To31"
**.VIFIBN8.ShimIPC1.ipcAddress 	 	    = "1"
**.VIFIBN31.ShimIPC0.difName 		= "Shim8To31"
**.VIFIBN31.ShimIPC0.ipcAddress 	 	    = "2"
**.VIFIBN8.ShimIPC2.difName 		= "Shim8To48"
**.VIFIBN8.ShimIPC2.ipcAddress 	 	    = "1"
**.VIFIBN48.ShimIPC0.difName 		= "Shim8To48"
**.VIFIBN48.ShimIPC0.ipcAddress 	 	    = "2"
**.VIFIBN8.ShimIPC3.difName 		= "Shim8To18"
**.VIFIBN8.ShimIPC3.ipcAddress 	 	    = "1"
**.VIFIBN18.ShimIPC1.difName 		= "Shim8To18"
**.VIFIBN18.ShimIPC1.ipcAddress 	 	    = "2"
**.VIFIBN9.ShimIPC0.difName 		= "Shim9To1"
**.VIFIBN9.ShimIPC0.ipcAddress 	 	    = "1"
**.VIFIBN1.ShimIPC17.difName 		= "Shim9To1"
**.VIFIBN1.ShimIPC17.ipcAddress 	 	    = "2"
**.VIFIBN9.ShimIPC1.difName 		= "Shim9To4"
**.VIFIBN9.ShimIPC1.ipcAddress 	 	    = "1"
**.VIFIBN4.ShimIPC16.difName 		= "Shim9To4"
**.VIFIBN4.ShimIPC16.ipcAddress 	 	    = "2"
**.VIFIBN9.ShimIPC2.difName 		= "Shim9To5"
**.VIFIBN9.ShimIPC2.ipcAddress 	 	    = "1"
**.VIFIBN5.ShimIPC10.difName 		= "Shim9To5"
**.VIFIBN5.ShimIPC10.ipcAddress 	 	    = "2"
**.VIFIBN9.ShimIPC3.difName 		= "Shim9To7"
**.VIFIBN9.ShimIPC3.ipcAddress 	 	    = "1"
**.VIFIBN7.ShimIPC13.difName 		= "Shim9To7"
**.VIFIBN7.ShimIPC13.ipcAddress 	 	    = "2"
**.VIFIBN9.ShimIPC4.difName 		= "Shim9To8"
**.VIFIBN9.ShimIPC4.ipcAddress 	 	    = "1"
**.VIFIBN8.ShimIPC4.difName 		= "Shim9To8"
**.VIFIBN8.ShimIPC4.ipcAddress 	 	    = "2"
**.VIFIBN9.ShimIPC5.difName 		= "Shim9To11"
**.VIFIBN9.ShimIPC5.ipcAddress 	 	    = "1"
**.VIFIBN11.ShimIPC4.difName 		= "Shim9To11"
**.VIFIBN11.ShimIPC4.ipcAddress 	 	    = "2"
**.VIFIBN9.ShimIPC6.difName 		= "Shim9To15"
**.VIFIBN9.ShimIPC6.ipcAddress 	 	    = "1"
**.VIFIBN15.ShimIPC1.difName 		= "Shim9To15"
**.VIFIBN15.ShimIPC1.ipcAddress 	 	    = "2"
**.VIFIBN9.ShimIPC7.difName 		= "Shim9To16"
**.VIFIBN9.ShimIPC7.ipcAddress 	 	    = "1"
**.VIFIBN16.ShimIPC3.difName 		= "Shim9To16"
**.VIFIBN16.ShimIPC3.ipcAddress 	 	    = "2"
**.VIFIBN9.ShimIPC8.difName 		= "Shim9To19"
**.VIFIBN9.ShimIPC8.ipcAddress 	 	    = "1"
**.VIFIBN19.ShimIPC1.difName 		= "Shim9To19"
**.VIFIBN19.ShimIPC1.ipcAddress 	 	    = "2"
**.VIFIBN9.ShimIPC9.difName 		= "Shim9To21"
**.VIFIBN9.ShimIPC9.ipcAddress 	 	    = "1"
**.VIFIBN21.ShimIPC1.difName 		= "Shim9To21"
**.VIFIBN21.ShimIPC1.ipcAddress 	 	    = "2"
**.VIFIBN9.ShimIPC10.difName 		= "Shim9To23"
**.VIFIBN9.ShimIPC10.ipcAddress 	 	    = "1"
**.VIFIBN23.ShimIPC1.difName 		= "Shim9To23"
**.VIFIBN23.ShimIPC1.ipcAddress 	 	    = "2"
**.VIFIBN9.ShimIPC11.difName 		= "Shim9To25"
**.VIFIBN9.ShimIPC11.ipcAddress 	 	    = "1"
**.VIFIBN25.ShimIPC1.difName 		= "Shim9To25"
**.VIFIBN25.ShimIPC1.ipcAddress 	 	    = "2"
**.VIFIBN9.ShimIPC12.difName 		= "Shim9To31"
**.VIFIBN9.ShimIPC12.ipcAddress 	 	    = "1"
**.VIFIBN31.ShimIPC1.difName 		= "Shim9To31"
**.VIFIBN31.ShimIPC1.ipcAddress 	 	    = "2"
**.VIFIBN9.ShimIPC13.difName 		= "Shim9To36"
**.VIFIBN9.ShimIPC13.ipcAddress 	 	    = "1"
**.VIFIBN36.ShimIPC2.difName 		= "Shim9To36"
**.VIFIBN36.ShimIPC2.ipcAddress 	 	    = "2"
**.VIFIBN9.ShimIPC14.difName 		= "Shim9To38"
**.VIFIBN9.ShimIPC14.ipcAddress 	 	    = "1"
**.VIFIBN38.ShimIPC1.difName 		= "Shim9To38"
**.VIFIBN38.ShimIPC1.ipcAddress 	 	    = "2"
**.VIFIBN9.ShimIPC15.difName 		= "Shim9To12"
**.VIFIBN9.ShimIPC15.ipcAddress 	 	    = "1"
**.VIFIBN12.ShimIPC1.difName 		= "Shim9To12"
**.VIFIBN12.ShimIPC1.ipcAddress 	 	    = "2"
**.VIFIBN9.ShimIPC16.difName 		= "Shim9To18"
**.VIFIBN9.ShimIPC16.ipcAddress 	 	    = "1"
**.VIFIBN18.ShimIPC2.difName 		= "Shim9To18"
**.VIFIBN18.ShimIPC2.ipcAddress 	 	    = "2"
**.VIFIBN10.ShimIPC3.difName 		= "Shim10To8"
**.VIFIBN10.ShimIPC3.ipcAddress 	 	    = "1"
**.VIFIBN8.ShimIPC5.difName 		= "Shim10To8"
**.VIFIBN8.ShimIPC5.ipcAddress 	 	    = "2"
**.VIFIBN10.ShimIPC4.difName 		= "Shim10To13"
**.VIFIBN10.ShimIPC4.ipcAddress 	 	    = "1"
**.VIFIBN13.ShimIPC2.difName 		= "Shim10To13"
**.VIFIBN13.ShimIPC2.ipcAddress 	 	    = "2"
**.VIFIBN10.ShimIPC5.difName 		= "Shim10To17"
**.VIFIBN10.ShimIPC5.ipcAddress 	 	    = "1"
**.VIFIBN17.ShimIPC1.difName 		= "Shim10To17"
**.VIFIBN17.ShimIPC1.ipcAddress 	 	    = "2"
**.VIFIBN10.ShimIPC6.difName 		= "Shim10To21"
**.VIFIBN10.ShimIPC6.ipcAddress 	 	    = "1"
**.VIFIBN21.ShimIPC2.difName 		= "Shim10To21"
**.VIFIBN21.ShimIPC2.ipcAddress 	 	    = "2"
**.VIFIBN11.ShimIPC5.difName 		= "Shim11To58"
**.VIFIBN11.ShimIPC5.ipcAddress 	 	    = "1"
**.VIFIBN58.ShimIPC0.difName 		= "Shim11To58"
**.VIFIBN58.ShimIPC0.ipcAddress 	 	    = "2"
**.VIFIBN11.ShimIPC6.difName 		= "Shim11To59"
**.VIFIBN11.ShimIPC6.ipcAddress 	 	    = "1"
**.VIFIBN59.ShimIPC0.difName 		= "Shim11To59"
**.VIFIBN59.ShimIPC0.ipcAddress 	 	    = "2"
**.VIFIBN11.ShimIPC7.difName 		= "Shim11To62"
**.VIFIBN11.ShimIPC7.ipcAddress 	 	    = "1"
**.VIFIBN62.ShimIPC0.difName 		= "Shim11To62"
**.VIFIBN62.ShimIPC0.ipcAddress 	 	    = "2"
**.VIFIBN11.ShimIPC8.difName 		= "Shim11To66"
**.VIFIBN11.ShimIPC8.ipcAddress 	 	    = "1"
**.VIFIBN66.ShimIPC0.difName 		= "Shim11To66"
**.VIFIBN66.ShimIPC0.ipcAddress 	 	    = "2"
**.VIFIBN11.ShimIPC9.difName 		= "Shim11To77"
**.VIFIBN11.ShimIPC9.ipcAddress 	 	    = "1"
**.VIFIBN77.ShimIPC0.difName 		= "Shim11To77"
**.VIFIBN77.ShimIPC0.ipcAddress 	 	    = "2"
**.VIFIBN12.ShimIPC2.difName 		= "Shim12To17"
**.VIFIBN12.ShimIPC2.ipcAddress 	 	    = "1"
**.VIFIBN17.ShimIPC2.difName 		= "Shim12To17"
**.VIFIBN17.ShimIPC2.ipcAddress 	 	    = "2"
**.VIFIBN12.ShimIPC3.difName 		= "Shim12To31"
**.VIFIBN12.ShimIPC3.ipcAddress 	 	    = "1"
**.VIFIBN31.ShimIPC2.difName 		= "Shim12To31"
**.VIFIBN31.ShimIPC2.ipcAddress 	 	    = "2"
**.VIFIBN12.ShimIPC4.difName 		= "Shim12To32"
**.VIFIBN12.ShimIPC4.ipcAddress 	 	    = "1"
**.VIFIBN32.ShimIPC1.difName 		= "Shim12To32"
**.VIFIBN32.ShimIPC1.ipcAddress 	 	    = "2"
**.VIFIBN12.ShimIPC5.difName 		= "Shim12To50"
**.VIFIBN12.ShimIPC5.ipcAddress 	 	    = "1"
**.VIFIBN50.ShimIPC0.difName 		= "Shim12To50"
**.VIFIBN50.ShimIPC0.ipcAddress 	 	    = "2"
**.VIFIBN12.ShimIPC6.difName 		= "Shim12To53"
**.VIFIBN12.ShimIPC6.ipcAddress 	 	    = "1"
**.VIFIBN53.ShimIPC1.difName 		= "Shim12To53"
**.VIFIBN53.ShimIPC1.ipcAddress 	 	    = "2"
**.VIFIBN12.ShimIPC7.difName 		= "Shim12To56"
**.VIFIBN12.ShimIPC7.ipcAddress 	 	    = "1"
**.VIFIBN56.ShimIPC1.difName 		= "Shim12To56"
**.VIFIBN56.ShimIPC1.ipcAddress 	 	    = "2"
**.VIFIBN12.ShimIPC8.difName 		= "Shim12To58"
**.VIFIBN12.ShimIPC8.ipcAddress 	 	    = "1"
**.VIFIBN58.ShimIPC1.difName 		= "Shim12To58"
**.VIFIBN58.ShimIPC1.ipcAddress 	 	    = "2"
**.VIFIBN12.ShimIPC9.difName 		= "Shim12To18"
**.VIFIBN12.ShimIPC9.ipcAddress 	 	    = "1"
**.VIFIBN18.ShimIPC3.difName 		= "Shim12To18"
**.VIFIBN18.ShimIPC3.ipcAddress 	 	    = "2"
**.VIFIBN13.ShimIPC3.difName 		= "Shim13To58"
**.VIFIBN13.ShimIPC3.ipcAddress 	 	    = "1"
**.VIFIBN58.ShimIPC2.difName 		= "Shim13To58"
**.VIFIBN58.ShimIPC2.ipcAddress 	 	    = "2"
**.VIFIBN13.ShimIPC4.difName 		= "Shim13To59"
**.VIFIBN13.ShimIPC4.ipcAddress 	 	    = "1"
**.VIFIBN59.ShimIPC1.difName 		= "Shim13To59"
**.VIFIBN59.ShimIPC1.ipcAddress 	 	    = "2"
**.VIFIBN13.ShimIPC5.difName 		= "Shim13To67"
**.VIFIBN13.ShimIPC5.ipcAddress 	 	    = "1"
**.VIFIBN67.ShimIPC0.difName 		= "Shim13To67"
**.VIFIBN67.ShimIPC0.ipcAddress 	 	    = "2"
**.VIFIBN14.ShimIPC1.difName 		= "Shim14To5"
**.VIFIBN14.ShimIPC1.ipcAddress 	 	    = "1"
**.VIFIBN5.ShimIPC11.difName 		= "Shim14To5"
**.VIFIBN5.ShimIPC11.ipcAddress 	 	    = "2"
**.VIFIBN14.ShimIPC2.difName 		= "Shim14To8"
**.VIFIBN14.ShimIPC2.ipcAddress 	 	    = "1"
**.VIFIBN8.ShimIPC6.difName 		= "Shim14To8"
**.VIFIBN8.ShimIPC6.ipcAddress 	 	    = "2"
**.VIFIBN14.ShimIPC3.difName 		= "Shim14To15"
**.VIFIBN14.ShimIPC3.ipcAddress 	 	    = "1"
**.VIFIBN15.ShimIPC2.difName 		= "Shim14To15"
**.VIFIBN15.ShimIPC2.ipcAddress 	 	    = "2"
**.VIFIBN14.ShimIPC4.difName 		= "Shim14To17"
**.VIFIBN14.ShimIPC4.ipcAddress 	 	    = "1"
**.VIFIBN17.ShimIPC3.difName 		= "Shim14To17"
**.VIFIBN17.ShimIPC3.ipcAddress 	 	    = "2"
**.VIFIBN14.ShimIPC5.difName 		= "Shim14To20"
**.VIFIBN14.ShimIPC5.ipcAddress 	 	    = "1"
**.VIFIBN20.ShimIPC1.difName 		= "Shim14To20"
**.VIFIBN20.ShimIPC1.ipcAddress 	 	    = "2"
**.VIFIBN14.ShimIPC6.difName 		= "Shim14To22"
**.VIFIBN14.ShimIPC6.ipcAddress 	 	    = "1"
**.VIFIBN22.ShimIPC2.difName 		= "Shim14To22"
**.VIFIBN22.ShimIPC2.ipcAddress 	 	    = "2"
**.VIFIBN14.ShimIPC7.difName 		= "Shim14To26"
**.VIFIBN14.ShimIPC7.ipcAddress 	 	    = "1"
**.VIFIBN26.ShimIPC1.difName 		= "Shim14To26"
**.VIFIBN26.ShimIPC1.ipcAddress 	 	    = "2"
**.VIFIBN14.ShimIPC8.difName 		= "Shim14To27"
**.VIFIBN14.ShimIPC8.ipcAddress 	 	    = "1"
**.VIFIBN27.ShimIPC0.difName 		= "Shim14To27"
**.VIFIBN27.ShimIPC0.ipcAddress 	 	    = "2"
**.VIFIBN14.ShimIPC9.difName 		= "Shim14To35"
**.VIFIBN14.ShimIPC9.ipcAddress 	 	    = "1"
**.VIFIBN35.ShimIPC1.difName 		= "Shim14To35"
**.VIFIBN35.ShimIPC1.ipcAddress 	 	    = "2"
**.VIFIBN14.ShimIPC10.difName 		= "Shim14To43"
**.VIFIBN14.ShimIPC10.ipcAddress 	 	    = "1"
**.VIFIBN43.ShimIPC1.difName 		= "Shim14To43"
**.VIFIBN43.ShimIPC1.ipcAddress 	 	    = "2"
**.VIFIBN14.ShimIPC11.difName 		= "Shim14To45"
**.VIFIBN14.ShimIPC11.ipcAddress 	 	    = "1"
**.VIFIBN45.ShimIPC1.difName 		= "Shim14To45"
**.VIFIBN45.ShimIPC1.ipcAddress 	 	    = "2"
**.VIFIBN14.ShimIPC12.difName 		= "Shim14To48"
**.VIFIBN14.ShimIPC12.ipcAddress 	 	    = "1"
**.VIFIBN48.ShimIPC1.difName 		= "Shim14To48"
**.VIFIBN48.ShimIPC1.ipcAddress 	 	    = "2"
**.VIFIBN14.ShimIPC13.difName 		= "Shim14To52"
**.VIFIBN14.ShimIPC13.ipcAddress 	 	    = "1"
**.VIFIBN52.ShimIPC0.difName 		= "Shim14To52"
**.VIFIBN52.ShimIPC0.ipcAddress 	 	    = "2"
**.VIFIBN14.ShimIPC14.difName 		= "Shim14To2"
**.VIFIBN14.ShimIPC14.ipcAddress 	 	    = "1"
**.VIFIBN2.ShimIPC12.difName 		= "Shim14To2"
**.VIFIBN2.ShimIPC12.ipcAddress 	 	    = "2"
**.VIFIBN14.ShimIPC15.difName 		= "Shim14To3"
**.VIFIBN14.ShimIPC15.ipcAddress 	 	    = "1"
**.VIFIBN3.ShimIPC14.difName 		= "Shim14To3"
**.VIFIBN3.ShimIPC14.ipcAddress 	 	    = "2"
**.VIFIBN15.ShimIPC3.difName 		= "Shim15To5"
**.VIFIBN15.ShimIPC3.ipcAddress 	 	    = "1"
**.VIFIBN5.ShimIPC12.difName 		= "Shim15To5"
**.VIFIBN5.ShimIPC12.ipcAddress 	 	    = "2"
**.VIFIBN15.ShimIPC4.difName 		= "Shim15To6"
**.VIFIBN15.ShimIPC4.ipcAddress 	 	    = "1"
**.VIFIBN6.ShimIPC11.difName 		= "Shim15To6"
**.VIFIBN6.ShimIPC11.ipcAddress 	 	    = "2"
**.VIFIBN15.ShimIPC5.difName 		= "Shim15To12"
**.VIFIBN15.ShimIPC5.ipcAddress 	 	    = "1"
**.VIFIBN12.ShimIPC10.difName 		= "Shim15To12"
**.VIFIBN12.ShimIPC10.ipcAddress 	 	    = "2"
**.VIFIBN15.ShimIPC6.difName 		= "Shim15To13"
**.VIFIBN15.ShimIPC6.ipcAddress 	 	    = "1"
**.VIFIBN13.ShimIPC6.difName 		= "Shim15To13"
**.VIFIBN13.ShimIPC6.ipcAddress 	 	    = "2"
**.VIFIBN15.ShimIPC7.difName 		= "Shim15To19"
**.VIFIBN15.ShimIPC7.ipcAddress 	 	    = "1"
**.VIFIBN19.ShimIPC2.difName 		= "Shim15To19"
**.VIFIBN19.ShimIPC2.ipcAddress 	 	    = "2"
**.VIFIBN15.ShimIPC8.difName 		= "Shim15To30"
**.VIFIBN15.ShimIPC8.ipcAddress 	 	    = "1"
**.VIFIBN30.ShimIPC0.difName 		= "Shim15To30"
**.VIFIBN30.ShimIPC0.ipcAddress 	 	    = "2"
**.VIFIBN15.ShimIPC9.difName 		= "Shim15To33"
**.VIFIBN15.ShimIPC9.ipcAddress 	 	    = "1"
**.VIFIBN33.ShimIPC1.difName 		= "Shim15To33"
**.VIFIBN33.ShimIPC1.ipcAddress 	 	    = "2"
**.VIFIBN15.ShimIPC10.difName 		= "Shim15To36"
**.VIFIBN15.ShimIPC10.ipcAddress 	 	    = "1"
**.VIFIBN36.ShimIPC3.difName 		= "Shim15To36"
**.VIFIBN36.ShimIPC3.ipcAddress 	 	    = "2"
**.VIFIBN15.ShimIPC11.difName 		= "Shim15To41"