[General]
network = net
**.pduTracing = false
**.scalar-recording = false
**.vector-recording = false

check-signals = false

seed-set = 76768

sim-time-limit = 1500s

**.difAllocator.directory.configData = xmldoc("directory.xml", "DA")
**.ra.preallocation = xmldoc("shimconnectionset.xml", "ConnectionSet")
**.flowAllocator.newFlowReqPolicyType = "MinComparer"
**.isSelfEnrolled = true

**.ipcProcess0[*].**.ra.qoscubesData = xmldoc("shimqoscube.xml", "QoSCubesSet")
**.ipcProcess1.**.ra.qoscubesData = xmldoc("qoscube.xml", "QoSCubesSet")
**.ipcProcess1.**.ra.qosReqData = xmldoc("qosreq.xml", "QoSReqSet")


##Shims

#Spines
**._0_0.ipcProcess0[*].ipcAddress = "0"
**._0_0.ipcProcess0[0].difName = "00_3"
**._0_0.ipcProcess0[1].difName = "00_4"
**._0_0.ipcProcess0[2].difName = "00_5"
**._0_0.ipcProcess0[3].difName = "00_6"
**._0_0.ipcProcess0[4].difName = "00_7"
**._0_0.ipcProcess0[5].difName = "00_8"
**._0_0.ipcProcess0[6].difName = "00_9"
**._0_0.ipcProcess0[7].difName = "00_a"

**._0_1.ipcProcess0[*].ipcAddress = "0"
**._0_1.ipcProcess0[0].difName = "01_3"
**._0_1.ipcProcess0[1].difName = "01_4"
**._0_1.ipcProcess0[2].difName = "01_5"
**._0_1.ipcProcess0[3].difName = "01_6"
**._0_1.ipcProcess0[4].difName = "01_7"
**._0_1.ipcProcess0[5].difName = "01_8"
**._0_1.ipcProcess0[6].difName = "01_9"
**._0_1.ipcProcess0[7].difName = "01_a"

**._0_2.ipcProcess0[*].ipcAddress = "0"
**._0_2.ipcProcess0[0].difName = "02_3"
**._0_2.ipcProcess0[1].difName = "02_4"
**._0_2.ipcProcess0[2].difName = "02_5"
**._0_2.ipcProcess0[3].difName = "02_6"
**._0_2.ipcProcess0[4].difName = "02_7"
**._0_2.ipcProcess0[5].difName = "02_8"
**._0_2.ipcProcess0[6].difName = "02_9"
**._0_2.ipcProcess0[7].difName = "02_a"

**._0_3.ipcProcess0[*].ipcAddress = "0"
**._0_3.ipcProcess0[0].difName = "03_3"
**._0_3.ipcProcess0[1].difName = "03_4"
**._0_3.ipcProcess0[2].difName = "03_5"
**._0_3.ipcProcess0[3].difName = "03_6"
**._0_3.ipcProcess0[4].difName = "03_7"
**._0_3.ipcProcess0[5].difName = "03_8"
**._0_3.ipcProcess0[6].difName = "03_9"
**._0_3.ipcProcess0[7].difName = "03_a"


**._1_0.ipcProcess0[*].ipcAddress = "0"
**._1_0.ipcProcess0[0].difName = "10_3"
**._1_0.ipcProcess0[1].difName = "10_4"
**._1_0.ipcProcess0[2].difName = "10_5"
**._1_0.ipcProcess0[3].difName = "10_6"
**._1_0.ipcProcess0[4].difName = "10_7"
**._1_0.ipcProcess0[5].difName = "10_8"
**._1_0.ipcProcess0[6].difName = "10_9"
**._1_0.ipcProcess0[7].difName = "10_a"

**._1_1.ipcProcess0[*].ipcAddress = "0"
**._1_1.ipcProcess0[0].difName = "11_3"
**._1_1.ipcProcess0[1].difName = "11_4"
**._1_1.ipcProcess0[2].difName = "11_5"
**._1_1.ipcProcess0[3].difName = "11_6"
**._1_1.ipcProcess0[4].difName = "11_7"
**._1_1.ipcProcess0[5].difName = "11_8"
**._1_1.ipcProcess0[6].difName = "11_9"
**._1_1.ipcProcess0[7].difName = "11_a"

**._1_2.ipcProcess0[*].ipcAddress = "0"
**._1_2.ipcProcess0[0].difName = "12_3"
**._1_2.ipcProcess0[1].difName = "12_4"
**._1_2.ipcProcess0[2].difName = "12_5"
**._1_2.ipcProcess0[3].difName = "12_6"
**._1_2.ipcProcess0[4].difName = "12_7"
**._1_2.ipcProcess0[5].difName = "12_8"
**._1_2.ipcProcess0[6].difName = "12_9"
**._1_2.ipcProcess0[7].difName = "12_a"

**._1_3.ipcProcess0[*].ipcAddress = "0"
**._1_3.ipcProcess0[0].difName = "13_3"
**._1_3.ipcProcess0[1].difName = "13_4"
**._1_3.ipcProcess0[2].difName = "13_5"
**._1_3.ipcProcess0[3].difName = "13_6"
**._1_3.ipcProcess0[4].difName = "13_7"
**._1_3.ipcProcess0[5].difName = "13_8"
**._1_3.ipcProcess0[6].difName = "13_9"
**._1_3.ipcProcess0[7].difName = "13_a"


**._2_0.ipcProcess0[*].ipcAddress = "0"
**._2_0.ipcProcess0[0].difName = "20_3"
**._2_0.ipcProcess0[1].difName = "20_4"
**._2_0.ipcProcess0[2].difName = "20_5"
**._2_0.ipcProcess0[3].difName = "20_6"
**._2_0.ipcProcess0[4].difName = "20_7"
**._2_0.ipcProcess0[5].difName = "20_8"
**._2_0.ipcProcess0[6].difName = "20_9"
**._2_0.ipcProcess0[7].difName = "20_a"

**._2_1.ipcProcess0[*].ipcAddress = "0"
**._2_1.ipcProcess0[0].difName = "21_3"
**._2_1.ipcProcess0[1].difName = "21_4"
**._2_1.ipcProcess0[2].difName = "21_5"
**._2_1.ipcProcess0[3].difName = "21_6"
**._2_1.ipcProcess0[4].difName = "21_7"
**._2_1.ipcProcess0[5].difName = "21_8"
**._2_1.ipcProcess0[6].difName = "21_9"
**._2_1.ipcProcess0[7].difName = "21_a"

**._2_2.ipcProcess0[*].ipcAddress = "0"
**._2_2.ipcProcess0[0].difName = "22_3"
**._2_2.ipcProcess0[1].difName = "22_4"
**._2_2.ipcProcess0[2].difName = "22_5"
**._2_2.ipcProcess0[3].difName = "22_6"
**._2_2.ipcProcess0[4].difName = "22_7"
**._2_2.ipcProcess0[5].difName = "22_8"
**._2_2.ipcProcess0[6].difName = "22_9"
**._2_2.ipcProcess0[7].difName = "22_a"

**._2_3.ipcProcess0[*].ipcAddress = "0"
**._2_3.ipcProcess0[0].difName = "23_3"
**._2_3.ipcProcess0[1].difName = "23_4"
**._2_3.ipcProcess0[2].difName = "23_5"
**._2_3.ipcProcess0[3].difName = "23_6"
**._2_3.ipcProcess0[4].difName = "23_7"
**._2_3.ipcProcess0[5].difName = "23_8"
**._2_3.ipcProcess0[6].difName = "23_9"
**._2_3.ipcProcess0[7].difName = "23_a"

#Fabrics
**._3_0.ipcProcess0[*].ipcAddress = "1"
**._3_0.ipcProcess0[0].difName = "00_3"
**._3_0.ipcProcess0[1].difName = "01_3"
**._3_0.ipcProcess0[2].difName = "02_3"
**._3_0.ipcProcess0[3].difName = "03_3"
**._3_0.ipcProcess0[4].difName = "3_03"
**._3_0.ipcProcess0[5].difName = "3_04"
**._3_0.ipcProcess0[6].difName = "3_05"
**._3_0.ipcProcess0[7].difName = "3_06"
**._3_0.ipcProcess0[8].difName = "3_07"
**._3_0.ipcProcess0[9].difName = "3_08"

**._3_1.ipcProcess0[*].ipcAddress = "1"
**._3_1.ipcProcess0[0].difName = "10_3"
**._3_1.ipcProcess0[1].difName = "11_3"
**._3_1.ipcProcess0[2].difName = "12_3"
**._3_1.ipcProcess0[3].difName = "13_3"
**._3_1.ipcProcess0[4].difName = "3_13"
**._3_1.ipcProcess0[5].difName = "3_14"
**._3_1.ipcProcess0[6].difName = "3_15"
**._3_1.ipcProcess0[7].difName = "3_16"
**._3_1.ipcProcess0[8].difName = "3_17"
**._3_1.ipcProcess0[9].difName = "3_18"

**._3_2.ipcProcess0[*].ipcAddress = "1"
**._3_2.ipcProcess0[0].difName = "20_3"
**._3_2.ipcProcess0[1].difName = "21_3"
**._3_2.ipcProcess0[2].difName = "22_3"
**._3_2.ipcProcess0[3].difName = "23_3"
**._3_2.ipcProcess0[4].difName = "3_23"
**._3_2.ipcProcess0[5].difName = "3_24"
**._3_2.ipcProcess0[6].difName = "3_25"
**._3_2.ipcProcess0[7].difName = "3_26"
**._3_2.ipcProcess0[8].difName = "3_27"
**._3_2.ipcProcess0[9].difName = "3_28"

**._4_0.ipcProcess0[*].ipcAddress = "1"
**._4_0.ipcProcess0[0].difName = "00_4"
**._4_0.ipcProcess0[1].difName = "01_4"
**._4_0.ipcProcess0[2].difName = "02_4"
**._4_0.ipcProcess0[3].difName = "03_4"
**._4_0.ipcProcess0[4].difName = "4_03"
**._4_0.ipcProcess0[5].difName = "4_04"
**._4_0.ipcProcess0[6].difName = "4_05"
**._4_0.ipcProcess0[7].difName = "4_06"
**._4_0.ipcProcess0[8].difName = "4_07"
**._4_0.ipcProcess0[9].difName = "4_08"

**._4_1.ipcProcess0[*].ipcAddress = "1"
**._4_1.ipcProcess0[0].difName = "10_4"
**._4_1.ipcProcess0[1].difName = "11_4"
**._4_1.ipcProcess0[2].difName = "12_4"
**._4_1.ipcProcess0[3].difName = "13_4"
**._4_1.ipcProcess0[4].difName = "4_13"
**._4_1.ipcProcess0[5].difName = "4_14"
**._4_1.ipcProcess0[6].difName = "4_15"
**._4_1.ipcProcess0[7].difName = "4_16"
**._4_1.ipcProcess0[8].difName = "4_17"
**._4_1.ipcProcess0[9].difName = "4_18"

**._4_2.ipcProcess0[*].ipcAddress = "1"
**._4_2.ipcProcess0[0].difName = "20_4"
**._4_2.ipcProcess0[1].difName = "21_4"
**._4_2.ipcProcess0[2].difName = "22_4"
**._4_2.ipcProcess0[3].difName = "23_4"
**._4_2.ipcProcess0[4].difName = "4_23"
**._4_2.ipcProcess0[5].difName = "4_24"
**._4_2.ipcProcess0[6].difName = "4_25"
**._4_2.ipcProcess0[7].difName = "4_26"
**._4_2.ipcProcess0[8].difName = "4_27"
**._4_2.ipcProcess0[9].difName = "4_28"

**._5_0.ipcProcess0[*].ipcAddress = "1"
**._5_0.ipcProcess0[0].difName = "00_5"
**._5_0.ipcProcess0[1].difName = "01_5"
**._5_0.ipcProcess0[2].difName = "02_5"
**._5_0.ipcProcess0[3].difName = "03_5"
**._5_0.ipcProcess0[4].difName = "5_03"
**._5_0.ipcProcess0[5].difName = "5_04"
**._5_0.ipcProcess0[6].difName = "5_05"
**._5_0.ipcProcess0[7].difName = "5_06"
**._5_0.ipcProcess0[8].difName = "5_07"
**._5_0.ipcProcess0[9].difName = "5_08"

**._5_1.ipcProcess0[*].ipcAddress = "1"
**._5_1.ipcProcess0[0].difName = "10_5"
**._5_1.ipcProcess0[1].difName = "11_5"
**._5_1.ipcProcess0[2].difName = "12_5"
**._5_1.ipcProcess0[3].difName = "13_5"
**._5_1.ipcProcess0[4].difName = "5_13"
**._5_1.ipcProcess0[5].difName = "5_14"
**._5_1.ipcProcess0[6].difName = "5_15"
**._5_1.ipcProcess0[7].difName = "5_16"
**._5_1.ipcProcess0[8].difName = "5_17"
**._5_1.ipcProcess0[9].difName = "5_18"

**._5_2.ipcProcess0[*].ipcAddress = "1"
**._5_2.ipcProcess0[0].difName = "20_5"
**._5_2.ipcProcess0[1].difName = "21_5"
**._5_2.ipcProcess0[2].difName = "22_5"
**._5_2.ipcProcess0[3].difName = "23_5"
**._5_2.ipcProcess0[4].difName = "5_23"
**._5_2.ipcProcess0[5].difName = "5_24"
**._5_2.ipcProcess0[6].difName = "5_25"
**._5_2.ipcProcess0[7].difName = "5_26"
**._5_2.ipcProcess0[8].difName = "5_27"
**._5_2.ipcProcess0[9].difName = "5_28"

**._6_0.ipcProcess0[*].ipcAddress = "1"
**._6_0.ipcProcess0[0].difName = "00_6"
**._6_0.ipcProcess0[1].difName = "01_6"
**._6_0.ipcProcess0[2].difName = "02_6"
**._6_0.ipcProcess0[3].difName = "03_6"
**._6_0.ipcProcess0[4].difName = "6_03"
**._6_0.ipcProcess0[5].difName = "6_04"
**._6_0.ipcProcess0[6].difName = "6_05"
**._6_0.ipcProcess0[7].difName = "6_06"
**._6_0.ipcProcess0[8].difName = "6_07"
**._6_0.ipcProcess0[9].difName = "6_08"

**._6_1.ipcProcess0[*].ipcAddress = "1"
**._6_1.ipcProcess0[0].difName = "10_6"
**._6_1.ipcProcess0[1].difName = "11_6"
**._6_1.ipcProcess0[2].difName = "12_6"
**._6_1.ipcProcess0[3].difName = "13_6"
**._6_1.ipcProcess0[4].difName = "6_13"
**._6_1.ipcProcess0[5].difName = "6_14"
**._6_1.ipcProcess0[6].difName = "6_15"
**._6_1.ipcProcess0[7].difName = "6_16"
**._6_1.ipcProcess0[8].difName = "6_17"
**._6_1.ipcProcess0[9].difName = "6_18"

**._6_2.ipcProcess0[*].ipcAddress = "1"
**._6_2.ipcProcess0[0].difName = "20_6"
**._6_2.ipcProcess0[1].difName = "21_6"
**._6_2.ipcProcess0[2].difName = "22_6"
**._6_2.ipcProcess0[3].difName = "23_6"
**._6_2.ipcProcess0[4].difName = "6_23"
**._6_2.ipcProcess0[5].difName = "6_24"
**._6_2.ipcProcess0[6].difName = "6_25"
**._6_2.ipcProcess0[7].difName = "6_26"
**._6_2.ipcProcess0[8].difName = "6_27"
**._6_2.ipcProcess0[9].difName = "6_28"

**._7_0.ipcProcess0[*].ipcAddress = "1"
**._7_0.ipcProcess0[0].difName = "00_7"
**._7_0.ipcProcess0[1].difName = "01_7"
**._7_0.ipcProcess0[2].difName = "02_7"
**._7_0.ipcProcess0[3].difName = "03_7"
**._7_0.ipcProcess0[4].difName = "7_03"
**._7_0.ipcProcess0[5].difName = "7_04"
**._7_0.ipcProcess0[6].difName = "7_05"
**._7_0.ipcProcess0[7].difName = "7_06"
**._7_0.ipcProcess0[8].difName = "7_07"
**._7_0.ipcProcess0[9].difName = "7_08"

**._7_1.ipcProcess0[*].ipcAddress = "1"
**._7_1.ipcProcess0[0].difName = "10_7"
**._7_1.ipcProcess0[1].difName = "11_7"
**._7_1.ipcProcess0[2].difName = "12_7"
**._7_1.ipcProcess0[3].difName = "13_7"
**._7_1.ipcProcess0[4].difName = "7_13"
**._7_1.ipcProcess0[5].difName = "7_14"
**._7_1.ipcProcess0[6].difName = "7_15"
**._7_1.ipcProcess0[7].difName = "7_16"
**._7_1.ipcProcess0[8].difName = "7_17"
**._7_1.ipcProcess0[9].difName = "7_18"

**._7_2.ipcProcess0[*].ipcAddress = "1"
**._7_2.ipcProcess0[0].difName = "20_7"
**._7_2.ipcProcess0[1].difName = "21_7"
**._7_2.ipcProcess0[2].difName = "22_7"
**._7_2.ipcProcess0[3].difName = "23_7"
**._7_2.ipcProcess0[4].difName = "7_23"
**._7_2.ipcProcess0[5].difName = "7_24"
**._7_2.ipcProcess0[6].difName = "7_25"
**._7_2.ipcProcess0[7].difName = "7_26"
**._7_2.ipcProcess0[8].difName = "7_27"
**._7_2.ipcProcess0[9].difName = "7_28"

**._8_0.ipcProcess0[*].ipcAddress = "1"
**._8_0.ipcProcess0[0].difName = "00_8"
**._8_0.ipcProcess0[1].difName = "01_8"
**._8_0.ipcProcess0[2].difName = "02_8"
**._8_0.ipcProcess0[3].difName = "03_8"
**._8_0.ipcProcess0[4].difName = "8_03"
**._8_0.ipcProcess0[5].difName = "8_04"
**._8_0.ipcProcess0[6].difName = "8_05"
**._8_0.ipcProcess0[7].difName = "8_06"
**._8_0.ipcProcess0[8].difName = "8_07"
**._8_0.ipcProcess0[9].difName = "8_08" 

**._8_1.ipcProcess0[*].ipcAddress = "1"
**._8_1.ipcProcess0[0].difName = "10_8"
**._8_1.ipcProcess0[1].difName = "11_8"
**._8_1.ipcProcess0[2].difName = "12_8"
**._8_1.ipcProcess0[3].difName = "13_8"
**._8_1.ipcProcess0[4].difName = "8_13"
**._8_1.ipcProcess0[5].difName = "8_14"
**._8_1.ipcProcess0[6].difName = "8_15"
**._8_1.ipcProcess0[7].difName = "8_16"
**._8_1.ipcProcess0[8].difName = "8_17"
**._8_1.ipcProcess0[9].difName = "8_18"

**._8_2.ipcProcess0[*].ipcAddress = "1"
**._8_2.ipcProcess0[0].difName = "20_8"
**._8_2.ipcProcess0[1].difName = "21_8"
**._8_2.ipcProcess0[2].difName = "22_8"
**._8_2.ipcProcess0[3].difName = "23_8"
**._8_2.ipcProcess0[4].difName = "8_23"
**._8_2.ipcProcess0[5].difName = "8_24"
**._8_2.ipcProcess0[6].difName = "8_25"
**._8_2.ipcProcess0[7].difName = "8_26"
**._8_2.ipcProcess0[8].difName = "8_27"
**._8_2.ipcProcess0[9].difName = "8_28"

**._9_0.ipcProcess0[*].ipcAddress = "1"
**._9_0.ipcProcess0[0].difName = "00_9"
**._9_0.ipcProcess0[1].difName = "01_9"
**._9_0.ipcProcess0[2].difName = "02_9"
**._9_0.ipcProcess0[3].difName = "03_9"
**._9_0.ipcProcess0[4].difName = "9_03"
**._9_0.ipcProcess0[5].difName = "9_04"
**._9_0.ipcProcess0[6].difName = "9_05"
**._9_0.ipcProcess0[7].difName = "9_06"
**._9_0.ipcProcess0[8].difName = "9_07"
**._9_0.ipcProcess0[9].difName = "9_08"

**._9_1.ipcProcess0[*].ipcAddress = "1"
**._9_1.ipcProcess0[0].difName = "10_9"
**._9_1.ipcProcess0[1].difName = "11_9"
**._9_1.ipcProcess0[2].difName = "12_9"
**._9_1.ipcProcess0[3].difName = "13_9"
**._9_1.ipcProcess0[4].difName = "9_13"
**._9_1.ipcProcess0[5].difName = "9_14"
**._9_1.ipcProcess0[6].difName = "9_15"
**._9_1.ipcProcess0[7].difName = "9_16"
**._9_1.ipcProcess0[8].difName = "9_17"
**._9_1.ipcProcess0[9].difName = "9_18"

**._9_2.ipcProcess0[*].ipcAddress = "1"
**._9_2.ipcProcess0[0].difName = "20_9"
**._9_2.ipcProcess0[1].difName = "21_9"
**._9_2.ipcProcess0[2].difName = "22_9"
**._9_2.ipcProcess0[3].difName = "23_9"
**._9_2.ipcProcess0[4].difName = "9_23"
**._9_2.ipcProcess0[5].difName = "9_24"
**._9_2.ipcProcess0[6].difName = "9_25"
**._9_2.ipcProcess0[7].difName = "9_26"
**._9_2.ipcProcess0[8].difName = "9_27"
**._9_2.ipcProcess0[9].difName = "9_28"

**._a_0.ipcProcess0[*].ipcAddress = "1"
**._a_0.ipcProcess0[0].difName = "00_a"
**._a_0.ipcProcess0[1].difName = "01_a"
**._a_0.ipcProcess0[2].difName = "02_a"
**._a_0.ipcProcess0[3].difName = "03_a"
**._a_0.ipcProcess0[4].difName = "a_03"
**._a_0.ipcProcess0[5].difName = "a_04"
**._a_0.ipcProcess0[6].difName = "a_05"
**._a_0.ipcProcess0[7].difName = "a_06"
**._a_0.ipcProcess0[8].difName = "a_07"
**._a_0.ipcProcess0[9].difName = "a_08"

**._a_1.ipcProcess0[*].ipcAddress = "1"
**._a_1.ipcProcess0[0].difName = "10_a"
**._a_1.ipcProcess0[1].difName = "11_a"
**._a_1.ipcProcess0[2].difName = "12_a"
**._a_1.ipcProcess0[3].difName = "13_a"
**._a_1.ipcProcess0[4].difName = "a_13"
**._a_1.ipcProcess0[5].difName = "a_14"
**._a_1.ipcProcess0[6].difName = "a_15"
**._a_1.ipcProcess0[7].difName = "a_16"
**._a_1.ipcProcess0[8].difName = "a_17"
**._a_1.ipcProcess0[9].difName = "a_18"

**._a_2.ipcProcess0[*].ipcAddress = "1"
**._a_2.ipcProcess0[0].difName = "20_a"
**._a_2.ipcProcess0[1].difName = "21_a"
**._a_2.ipcProcess0[2].difName = "22_a"
**._a_2.ipcProcess0[3].difName = "23_a"
**._a_2.ipcProcess0[4].difName = "a_23"
**._a_2.ipcProcess0[5].difName = "a_24"
**._a_2.ipcProcess0[6].difName = "a_25"
**._a_2.ipcProcess0[7].difName = "a_26"
**._a_2.ipcProcess0[8].difName = "a_27"
**._a_2.ipcProcess0[9].difName = "a_28"

#ToRs

**._*_3.ipcProcess0[*].ipcAddress = "2"
**._*_4.ipcProcess0[*].ipcAddress = "2"
**._*_5.ipcProcess0[*].ipcAddress = "2"
**._*_6.ipcProcess0[*].ipcAddress = "2"
**._*_7.ipcProcess0[*].ipcAddress = "2"
**._*_8.ipcProcess0[*].ipcAddress = "2"

**._3_3.ipcProcess0[0].difName = "3_03"
**._3_3.ipcProcess0[1].difName = "3_13"
**._3_3.ipcProcess0[2].difName = "3_23"
**._3_4.ipcProcess0[0].difName = "3_04"
**._3_4.ipcProcess0[1].difName = "3_14"
**._3_4.ipcProcess0[2].difName = "3_24"
**._3_5.ipcProcess0[0].difName = "3_05"
**._3_5.ipcProcess0[1].difName = "3_15"
**._3_5.ipcProcess0[2].difName = "3_25"
**._3_6.ipcProcess0[0].difName = "3_06"
**._3_6.ipcProcess0[1].difName = "3_16"
**._3_6.ipcProcess0[2].difName = "3_26"
**._3_7.ipcProcess0[0].difName = "3_07"
**._3_7.ipcProcess0[1].difName = "3_17"
**._3_7.ipcProcess0[2].difName = "3_27"
**._3_8.ipcProcess0[0].difName = "3_08"
**._3_8.ipcProcess0[1].difName = "3_18"
**._3_8.ipcProcess0[2].difName = "3_28"

**._4_3.ipcProcess0[0].difName = "4_03"
**._4_3.ipcProcess0[1].difName = "4_13"
**._4_3.ipcProcess0[2].difName = "4_23"
**._4_4.ipcProcess0[0].difName = "4_04"
**._4_4.ipcProcess0[1].difName = "4_14"
**._4_4.ipcProcess0[2].difName = "4_24"
**._4_5.ipcProcess0[0].difName = "4_05"
**._4_5.ipcProcess0[1].difName = "4_15"
**._4_5.ipcProcess0[2].difName = "4_25"
**._4_6.ipcProcess0[0].difName = "4_06"
**._4_6.ipcProcess0[1].difName = "4_16"
**._4_6.ipcProcess0[2].difName = "4_26"
**._4_7.ipcProcess0[0].difName = "4_07"
**._4_7.ipcProcess0[1].difName = "4_17"
**._4_7.ipcProcess0[2].difName = "4_27"
**._4_8.ipcProcess0[0].difName = "4_08"
**._4_8.ipcProcess0[1].difName = "4_18"
**._4_8.ipcProcess0[2].difName = "4_28"

**._5_3.ipcProcess0[0].difName = "5_03"
**._5_3.ipcProcess0[1].difName = "5_13"
**._5_3.ipcProcess0[2].difName = "5_23"
**._5_4.ipcProcess0[0].difName = "5_04"
**._5_4.ipcProcess0[1].difName = "5_14"
**._5_4.ipcProcess0[2].difName = "5_24"
**._5_5.ipcProcess0[0].difName = "5_05"
**._5_5.ipcProcess0[1].difName = "5_15"
**._5_5.ipcProcess0[2].difName = "5_25"
**._5_6.ipcProcess0[0].difName = "5_06"
**._5_6.ipcProcess0[1].difName = "5_16"
**._5_6.ipcProcess0[2].difName = "5_26"
**._5_7.ipcProcess0[0].difName = "5_07"
**._5_7.ipcProcess0[1].difName = "5_17"
**._5_7.ipcProcess0[2].difName = "5_27"
**._5_8.ipcProcess0[0].difName = "5_08"
**._5_8.ipcProcess0[1].difName = "5_18"
**._5_8.ipcProcess0[2].difName = "5_28"

**._6_3.ipcProcess0[0].difName = "6_03"
**._6_3.ipcProcess0[1].difName = "6_13"
**._6_3.ipcProcess0[2].difName = "6_23"
**._6_4.ipcProcess0[0].difName = "6_04"
**._6_4.ipcProcess0[1].difName = "6_14"
**._6_4.ipcProcess0[2].difName = "6_24"
**._6_5.ipcProcess0[0].difName = "6_05"
**._6_5.ipcProcess0[1].difName = "6_15"
**._6_5.ipcProcess0[2].difName = "6_25"
**._6_6.ipcProcess0[0].difName = "6_06"
**._6_6.ipcProcess0[1].difName = "6_16"
**._6_6.ipcProcess0[2].difName = "6_26"
**._6_7.ipcProcess0[0].difName = "6_07"
**._6_7.ipcProcess0[1].difName = "6_17"
**._6_7.ipcProcess0[2].difName = "6_27"
**._6_8.ipcProcess0[0].difName = "6_08"
**._6_8.ipcProcess0[1].difName = "6_18"
**._6_8.ipcProcess0[2].difName = "6_28"

**._7_3.ipcProcess0[0].difName = "7_03"
**._7_3.ipcProcess0[1].difName = "7_13"
**._7_3.ipcProcess0[2].difName = "7_23"
**._7_4.ipcProcess0[0].difName = "7_04"
**._7_4.ipcProcess0[1].difName = "7_14"
**._7_4.ipcProcess0[2].difName = "7_24"
**._7_5.ipcProcess0[0].difName = "7_05"
**._7_5.ipcProcess0[1].difName = "7_15"
**._7_5.ipcProcess0[2].difName = "7_25"
**._7_6.ipcProcess0[0].difName = "7_06"
**._7_6.ipcProcess0[1].difName = "7_16"
**._7_6.ipcProcess0[2].difName = "7_26"
**._7_7.ipcProcess0[0].difName = "7_07"
**._7_7.ipcProcess0[1].difName = "7_17"
**._7_7.ipcProcess0[2].difName = "7_27"
**._7_8.ipcProcess0[0].difName = "7_08"
**._7_8.ipcProcess0[1].difName = "7_18"
**._7_8.ipcProcess0[2].difName = "7_28"

**._8_3.ipcProcess0[0].difName = "8_03"
**._8_3.ipcProcess0[1].difName = "8_13"
**._8_3.ipcProcess0[2].difName = "8_23"
**._8_4.ipcProcess0[0].difName = "8_04"
**._8_4.ipcProcess0[1].difName = "8_14"
**._8_4.ipcProcess0[2].difName = "8_24"
**._8_5.ipcProcess0[0].difName = "8_05"
**._8_5.ipcProcess0[1].difName = "8_15"
**._8_5.ipcProcess0[2].difName = "8_25"
**._8_6.ipcProcess0[0].difName = "8_06"
**._8_6.ipcProcess0[1].difName = "8_16"
**._8_6.ipcProcess0[2].difName = "8_26"
**._8_7.ipcProcess0[0].difName = "8_07"
**._8_7.ipcProcess0[1].difName = "8_17"
**._8_7.ipcProcess0[2].difName = "8_27"
**._8_8.ipcProcess0[0].difName = "8_08"
**._8_8.ipcProcess0[1].difName = "8_18"
**._8_8.ipcProcess0[2].difName = "8_28"

**._9_3.ipcProcess0[0].difName = "9_03"
**._9_3.ipcProcess0[1].difName = "9_13"
**._9_3.ipcProcess0[2].difName = "9_23"
**._9_4.ipcProcess0[0].difName = "9_04"
**._9_4.ipcProcess0[1].difName = "9_14"
**._9_4.ipcProcess0[2].difName = "9_24"
**._9_5.ipcProcess0[0].difName = "9_05"
**._9_5.ipcProcess0[1].difName = "9_15"
**._9_5.ipcProcess0[2].difName = "9_25"
**._9_6.ipcProcess0[0].difName = "9_06"
**._9_6.ipcProcess0[1].difName = "9_16"
**._9_6.ipcProcess0[2].difName = "9_26"
**._9_7.ipcProcess0[0].difName = "9_07"
**._9_7.ipcProcess0[1].difName = "9_17"
**._9_7.ipcProcess0[2].difName = "9_27"
**._9_8.ipcProcess0[0].difName = "9_08"
**._9_8.ipcProcess0[1].difName = "9_18"
**._9_8.ipcProcess0[2].difName = "9_28"

**._a_3.ipcProcess0[0].difName = "a_03"
**._a_3.ipcProcess0[1].difName = "a_13"
**._a_3.ipcProcess0[2].difName = "a_23"
**._a_4.ipcProcess0[0].difName = "a_04"
**._a_4.ipcProcess0[1].difName = "a_14"
**._a_4.ipcProcess0[2].difName = "a_24"
**._a_5.ipcProcess0[0].difName = "a_05"
**._a_5.ipcProcess0[1].difName = "a_15"
**._a_5.ipcProcess0[2].difName = "a_25"
**._a_6.ipcProcess0[0].difName = "a_06"
**._a_6.ipcProcess0[1].difName = "a_16"
**._a_6.ipcProcess0[2].difName = "a_26"
**._a_7.ipcProcess0[0].difName = "a_07"
**._a_7.ipcProcess0[1].difName = "a_17"
**._a_7.ipcProcess0[2].difName = "a_27"
**._a_8.ipcProcess0[0].difName = "a_08"
**._a_8.ipcProcess0[1].difName = "a_18"
**._a_8.ipcProcess0[2].difName = "a_28"

## Fabric 

**.ipcProcess1.difName = "F"

**._0_0.ipcProcess1.ipcAddress = "0000"
**._0_1.ipcProcess1.ipcAddress = "0001"
**._0_2.ipcProcess1.ipcAddress = "0002"
**._0_3.ipcProcess1.ipcAddress = "0003"

**._1_0.ipcProcess1.ipcAddress = "0100"
**._1_1.ipcProcess1.ipcAddress = "0101"
**._1_2.ipcProcess1.ipcAddress = "0102"
**._1_3.ipcProcess1.ipcAddress = "0103"

**._2_0.ipcProcess1.ipcAddress = "0200"
**._2_1.ipcProcess1.ipcAddress = "0201"
**._2_2.ipcProcess1.ipcAddress = "0202"
**._2_3.ipcProcess1.ipcAddress = "0203"

**._3_0.ipcProcess1.ipcAddress = "0300"
**._3_1.ipcProcess1.ipcAddress = "0301"
**._3_2.ipcProcess1.ipcAddress = "0302"
**._3_3.ipcProcess1.ipcAddress = "0303"
**._3_4.ipcProcess1.ipcAddress = "0304"
**._3_5.ipcProcess1.ipcAddress = "0305"
**._3_6.ipcProcess1.ipcAddress = "0306"
**._3_7.ipcProcess1.ipcAddress = "0307"
**._3_8.ipcProcess1.ipcAddress = "0308"

**._4_0.ipcProcess1.ipcAddress = "0400"
**._4_1.ipcProcess1.ipcAddress = "0401"
**._4_2.ipcProcess1.ipcAddress = "0402"
**._4_3.ipcProcess1.ipcAddress = "0403"
**._4_4.ipcProcess1.ipcAddress = "0404"
**._4_5.ipcProcess1.ipcAddress = "0405"
**._4_6.ipcProcess1.ipcAddress = "0406"
**._4_7.ipcProcess1.ipcAddress = "0407"
**._4_8.ipcProcess1.ipcAddress = "0408"

**._5_0.ipcProcess1.ipcAddress = "0500"
**._5_1.ipcProcess1.ipcAddress = "0501"
**._5_2.ipcProcess1.ipcAddress = "0502"
**._5_3.ipcProcess1.ipcAddress = "0503"
**._5_4.ipcProcess1.ipcAddress = "0504"
**._5_5.ipcProcess1.ipcAddress = "0505"
**._5_6.ipcProcess1.ipcAddress = "0506"
**._5_7.ipcProcess1.ipcAddress = "0507"
**._5_8.ipcProcess1.ipcAddress = "0508"

**._6_0.ipcProcess1.ipcAddress = "0600"
**._6_1.ipcProcess1.ipcAddress = "0601"
**._6_2.ipcProcess1.ipcAddress = "0602"
**._6_3.ipcProcess1.ipcAddress = "0603"
**._6_4.ipcProcess1.ipcAddress = "0604"
**._6_5.ipcProcess1.ipcAddress = "0605"
**._6_6.ipcProcess1.ipcAddress = "0606"
**._6_7.ipcProcess1.ipcAddress = "0607"
**._6_8.ipcProcess1.ipcAddress = "0608"

**._7_0.ipcProcess1.ipcAddress = "0700"
**._7_1.ipcProcess1.ipcAddress = "0701"
**._7_2.ipcProcess1.ipcAddress = "0702"
**._7_3.ipcProcess1.ipcAddress = "0703"
**._7_4.ipcProcess1.ipcAddress = "0704"
**._7_5.ipcProcess1.ipcAddress = "0705"
**._7_6.ipcProcess1.ipcAddress = "0706"
**._7_7.ipcProcess1.ipcAddress = "0707"
**._7_8.ipcProcess1.ipcAddress = "0708"

**._8_0.ipcProcess1.ipcAddress = "0800"
**._8_1.ipcProcess1.ipcAddress = "0801"
**._8_2.ipcProcess1.ipcAddress = "0802"
**._8_3.ipcProcess1.ipcAddress = "0803"
**._8_4.ipcProcess1.ipcAddress = "0804"
**._8_5.ipcProcess1.ipcAddress = "0805"
**._8_6.ipcProcess1.ipcAddress = "0806"
**._8_7.ipcProcess1.ipcAddress = "0807"
**._8_8.ipcProcess1.ipcAddress = "0808"

**._9_0.ipcProcess1.ipcAddress = "0900"
**._9_1.ipcProcess1.ipcAddress = "0901"
**._9_2.ipcProcess1.ipcAddress = "0902"
**._9_3.ipcProcess1.ipcAddress = "0903"
**._9_4.ipcProcess1.ipcAddress = "0904"
**._9_5.ipcProcess1.ipcAddress = "0905"
**._9_6.ipcProcess1.ipcAddress = "0906"
**._9_7.ipcProcess1.ipcAddress = "0907"
**._9_8.ipcProcess1.ipcAddress = "0908"

**._a_0.ipcProcess1.ipcAddress = "0a00"
**._a_1.ipcProcess1.ipcAddress = "0a01"
**._a_2.ipcProcess1.ipcAddress = "0a02"
**._a_3.ipcProcess1.ipcAddress = "0a03"
**._a_4.ipcProcess1.ipcAddress = "0a04"
**._a_5.ipcProcess1.ipcAddress = "0a05"
**._a_6.ipcProcess1.ipcAddress = "0a06"
**._a_7.ipcProcess1.ipcAddress = "0a07"
**._a_8.ipcProcess1.ipcAddress = "0a08"


## Shims managers
**._3_3.ipcProcess0[3].difName  = "03_FE"
**._3_4.ipcProcess0[3].difName  = "03_FD"
**._3_FE.ipcProcess0[0].difName = "03_FE"
**._3_FD.ipcProcess0[0].difName = "03_FD"
**._4_3.ipcProcess0[3].difName  = "04_FE"
**._4_4.ipcProcess0[3].difName  = "04_FD"
**._4_FE.ipcProcess0[0].difName = "04_FE"
**._4_FD.ipcProcess0[0].difName = "04_FD"
**._5_3.ipcProcess0[3].difName  = "05_FE"
**._5_4.ipcProcess0[3].difName  = "05_FD"
**._5_FE.ipcProcess0[0].difName = "05_FE"
**._5_FD.ipcProcess0[0].difName = "05_FD"
**._6_3.ipcProcess0[3].difName  = "06_FE"
**._6_4.ipcProcess0[3].difName  = "06_FD"
**._6_FE.ipcProcess0[0].difName = "06_FE"
**._6_FD.ipcProcess0[0].difName = "06_FD"
**._7_3.ipcProcess0[3].difName  = "07_FE"
**._7_4.ipcProcess0[3].difName  = "07_FD"
**._7_FE.ipcProcess0[0].difName = "07_FE"
**._7_FD.ipcProcess0[0].difName = "07_FD"
**._8_3.ipcProcess0[3].difName  = "08_FE"
**._8_4.ipcProcess0[3].difName  = "08_FD"
**._8_FE.ipcProcess0[0].difName = "08_FE"
**._8_FD.ipcProcess0[0].difName = "08_FD"
**._9_3.ipcProcess0[3].difName  = "09_FE"
**._9_4.ipcProcess0[3].difName  = "09_FD"
**._9_FE.ipcProcess0[0].difName = "09_FE"
**._9_FD.ipcProcess0[0].difName = "09_FD"
**._a_3.ipcProcess0[3].difName  = "0a_FE"
**._a_4.ipcProcess0[3].difName  = "0a_FD"
**._a_FE.ipcProcess0[0].difName = "0a_FE"
**._a_FD.ipcProcess0[0].difName = "0a_FD"

**._*_F*.ipcProcess0[0].ipcAddress = "3"

##Manager addrs

**._3_FE.ipcProcess1.ipcAddress = "03FE"
**._3_FD.ipcProcess1.ipcAddress = "03FD"
**._4_FE.ipcProcess1.ipcAddress = "04FE"
**._4_FD.ipcProcess1.ipcAddress = "04FD"
**._5_FE.ipcProcess1.ipcAddress = "05FE"
**._5_FD.ipcProcess1.ipcAddress = "05FD"
**._6_FE.ipcProcess1.ipcAddress = "06FE"
**._6_FD.ipcProcess1.ipcAddress = "06FD"
**._7_FE.ipcProcess1.ipcAddress = "07FE"
**._7_FD.ipcProcess1.ipcAddress = "07FD"
**._8_FE.ipcProcess1.ipcAddress = "08FE"
**._8_FD.ipcProcess1.ipcAddress = "08FD"
**._9_FE.ipcProcess1.ipcAddress = "09FE"
**._9_FD.ipcProcess1.ipcAddress = "09FD"
**._a_FE.ipcProcess1.ipcAddress = "0aFE"
**._a_FD.ipcProcess1.ipcAddress = "0aFD"

**.defaultThreshQLength = 200
**.defaultMaxQLength =  200

**.ipcProcess1.**.addrComparatorName = "ReachabilityTest_Comparator"

## Routing default Link state
**.ipcProcess1.resourceAllocator.pdufgPolicyName = "SimpleGenerator"
**.ipcProcess1.relayAndMux.ForwardingPolicyName = "MiniTable"
**.ipcProcess1.routingPolicyName = "SimpleLS"

**.test.QoS = "A"
**.test.header_size = 20
**._{0..2}_*.test.ini = -1
**._*_{0..2}.test.ini = -1
**._*_*.test.ini = 150
**.test.interval = 0.01
**.test.nodes = "0303 0304 0305 0306 0307 0308 0403 0404 0405 0406 0407 0408 0503 0504 0505 0506 0507 0508 0603 0604 0605 0606 0607 0608 0703 0704 0705 0706 0707 0708 0803 0804 0805 0806 0807 0808 0903 0904 0905 0906 0907 0908 0a03 0a04 0a05 0a06 0a07 0a08"




[Config routingxceptions]
## Routing static rules&exceptions
**._*_F*.ipcProcess1.resourceAllocator.pdufgPolicyName = "StaticGenerator"
**._*_F*.ipcProcess1.relayAndMux.ForwardingPolicyName = "SimpleTable"
**._*_F*.ipcProcess1.routingPolicyName = "DummyRouting"
**._{0..2}_*.ipcProcess1.resourceAllocator.pdufgPolicyName ="GRE_Clos2R"
**._{0..2}_*.ipcProcess1.relayAndMux.ForwardingPolicyName = "Clos2"

**._*_{0..2}.ipcProcess1.resourceAllocator.pdufgPolicyName ="GRE_Clos1R"
**._*_{0..2}.ipcProcess1.relayAndMux.ForwardingPolicyName = "Clos1"

**._*_*.ipcProcess1.resourceAllocator.pdufgPolicyName ="GRE_Clos0R"
**._*_*.ipcProcess1.relayAndMux.ForwardingPolicyName = "Clos0"

**.ipcProcess1.resourceAllocator.pduFwdGenerator.pods = 8
**.ipcProcess1.resourceAllocator.pduFwdGenerator.fabrics = 3
**.ipcProcess1.resourceAllocator.pduFwdGenerator.spines = 4
**.ipcProcess1.resourceAllocator.pduFwdGenerator.tors = 6


**.ipcProcess1.routingPolicyName = "eRouting"

**.ipcProcess1.routingPolicy.cacheTime = 10.0
**.ipcProcess1.routingPolicy.updateDelay = 0.1

[Config routingxceptionsErrors]
## Routing static rules&exceptions
**._*_F*.ipcProcess1.resourceAllocator.pdufgPolicyName = "StaticGenerator"
**._*_F*.ipcProcess1.relayAndMux.ForwardingPolicyName = "SimpleTable"
**._*_F*.ipcProcess1.routingPolicyName = "DummyRouting"
