[General]
network = CongestedNet

seed-set = 515

sim-time-limit =  1min

**.listener.runname = ${runname = "135", "130", "125", "120", "115", "110", "105", "100", "095", "090", "085", "080"}


#Addressing settings router-router
**.router_1.ipcProcess[*].ipcAddress = "1"
**.router_2.ipcProcess[*].ipcAddress = "2"
**.router_3.ipcProcess[*].ipcAddress = "3"
**.router_4.ipcProcess[*].ipcAddress = "4"
**.router_5.ipcProcess[*].ipcAddress = "5"
**.router_6.ipcProcess[*].ipcAddress = "6"
**.router_7.ipcProcess[*].ipcAddress = "7"
**.router_8.ipcProcess[*].ipcAddress = "8"
**.router_9.ipcProcess[*].ipcAddress = "9"
**.router_a.ipcProcess[*].ipcAddress = "a"

**.router_1.ipcProcess[0].difName = "shim12"
**.router_1.ipcProcess[1].difName = "shim13"
**.router_1.ipcProcess[2].difName = "shim14"

**.router_2.ipcProcess[0].difName = "shim12"
**.router_2.ipcProcess[1].difName = "shim23"
**.router_2.ipcProcess[2].difName = "shim25"

**.router_3.ipcProcess[0].difName = "shim13"
**.router_3.ipcProcess[1].difName = "shim23"
**.router_3.ipcProcess[2].difName = "shim3a"

**.router_4.ipcProcess[0].difName = "shim14"
**.router_4.ipcProcess[1].difName = "shim45"
**.router_4.ipcProcess[2].difName = "shim46"
**.router_4.ipcProcess[3].difName = "shim48"

**.router_5.ipcProcess[0].difName = "shim25"
**.router_5.ipcProcess[1].difName = "shim45"
**.router_5.ipcProcess[2].difName = "shim5a"

**.router_6.ipcProcess[0].difName = "shim46"
**.router_6.ipcProcess[1].difName = "shim67"
**.router_6.ipcProcess[2].difName = "shim69"

**.router_7.ipcProcess[0].difName = "shim67"
**.router_7.ipcProcess[1].difName = "shim79"

**.router_8.ipcProcess[0].difName = "shim48"
**.router_8.ipcProcess[1].difName = "shim89"
**.router_8.ipcProcess[2].difName = "shim8a"

**.router_9.ipcProcess[0].difName = "shim69"
**.router_9.ipcProcess[1].difName = "shim79"
**.router_9.ipcProcess[2].difName = "shim89"

**.router_a.ipcProcess[0].difName = "shim3a"
**.router_a.ipcProcess[1].difName = "shim5a"
**.router_a.ipcProcess[2].difName = "shim8a"

#Addressing settings host-router

**.serverA_*.ipcProcess0.ipcAddress = "0"

**.serverA_1.ipcProcess0.difName = "shimR1"
**.serverA_2.ipcProcess0.difName = "shimR8"
**.serverA_3.ipcProcess0.difName = "shimR7"

**.clientB_*.ipcProcess0.ipcAddress = "0"

**.clientB_1.ipcProcess0.difName = "shimR2"
**.clientB_2.ipcProcess0.difName = "shimR3"
**.clientB_3.ipcProcess0.difName = "shimR4"
**.clientB_4.ipcProcess0.difName = "shimR5"
**.clientB_5.ipcProcess0.difName = "shimR6"
**.clientB_6.ipcProcess0.difName = "shimRa"
**.clientB_7.ipcProcess0.difName = "shimR9"


**.router_1.ipcProcess[3].difName = "shimR1"
**.router_2.ipcProcess[3].difName = "shimR2"
**.router_3.ipcProcess[3].difName = "shimR3"
**.router_4.ipcProcess[4].difName = "shimR4"
**.router_5.ipcProcess[3].difName = "shimR5"
**.router_6.ipcProcess[3].difName = "shimR6"
**.router_7.ipcProcess[2].difName = "shimR7"
**.router_8.ipcProcess[3].difName = "shimR8"
**.router_9.ipcProcess[3].difName = "shimR9"
**.router_a.ipcProcess[3].difName = "shimRa"

#Addressing settings backbone
**.router_*.relayIpc.difName = "backbone"

**.router_1.relayIpc.ipcAddress = "1"
**.router_2.relayIpc.ipcAddress = "2"
**.router_3.relayIpc.ipcAddress = "3"
**.router_4.relayIpc.ipcAddress = "4"
**.router_5.relayIpc.ipcAddress = "5"
**.router_6.relayIpc.ipcAddress = "6"
**.router_7.relayIpc.ipcAddress = "7"
**.router_8.relayIpc.ipcAddress = "8"
**.router_9.relayIpc.ipcAddress = "9"
**.router_a.relayIpc.ipcAddress = "a"

**.serverA_*.ipcProcess1.difName = "backbone"

**.serverA_1.ipcProcess1.ipcAddress = "S1"
**.serverA_2.ipcProcess1.ipcAddress = "S2"
**.serverA_3.ipcProcess1.ipcAddress = "S3"

**.clientB_*.ipcProcess1.difName = "backbone"

**.clientB_1.ipcProcess1.ipcAddress = "C1"
**.clientB_2.ipcProcess1.ipcAddress = "C2"
**.clientB_3.ipcProcess1.ipcAddress = "C3"
**.clientB_4.ipcProcess1.ipcAddress = "C4"
**.clientB_5.ipcProcess1.ipcAddress = "C5"
**.clientB_6.ipcProcess1.ipcAddress = "C6"
**.clientB_7.ipcProcess1.ipcAddress = "C7"

#QoS settings
**.ra.qoscubesData = xmldoc("qoscube.xml", "QoSCubesSet")
**.ra.qosReqData = xmldoc("qosreq.xml", "QoSReqSet")
**.flowAllocator.newFlowReqPolicyType = "MinComparer"

#Routing settings
**.router_*.relayIpc.resourceAllocator.pdufgPolicyName = "QoSDomainGenerator"
**.router_*.relayIpc.relayAndMux.ForwardingPolicyName = "QoSTable"
**.router_*.relayIpc.routingPolicyName = "DomainRouting"

**.serverA_*.ipcProcess1.resourceAllocator.pdufgPolicyName = "QoSDomainGenerator"
**.serverA_*.ipcProcess1.relayAndMux.ForwardingPolicyName = "QoSTable"
**.serverA_*.ipcProcess1.routingPolicyName = "DomainRouting"

**.clientB_*.ipcProcess1.resourceAllocator.pdufgPolicyName = "QoSDomainGenerator"
**.clientB_*.ipcProcess1.relayAndMux.ForwardingPolicyName = "QoSTable"
**.clientB_*.ipcProcess1.routingPolicyName = "DomainRouting"




#DIF Allocator settings
**.difAllocator.directory.configData = xmldoc("directory.xml", "DA")
#**.router_1.**.enrollment.isSelfEnrolled = true



#Shim-Flows allocation
**.ra.preallocation = xmldoc("connectionset.xml", "ConnectionSet")


#App config

**.serverA_*.nofAP = 21

**.serverA_*.AP[*].applicationEntity.iae.delay = (ancestorIndex(2)%3 == 0 ? 10 us : (ancestorIndex(2)%3 == 1 ? 100 us : 1000 us))
**.serverA_*.AP[*].applicationEntity.iae.pduDroppingProbability  = (ancestorIndex(2)%3 == 0 ? 0.001 : (ancestorIndex(2)%3 == 1 ? 0.01 : 0.1)) 

**.serverA_1.AP[*].apName = "S1-"+ string(ancestorIndex(0))
**.serverA_2.AP[*].apName = "S2-"+ string(ancestorIndex(0))
**.serverA_3.AP[*].apName = "S3-"+ string(ancestorIndex(0))

**.serverA_*.AP[*].applicationEntity.aeType = "AEConstantServer"

**.serverA_*.AP[*].applicationEntity.iae.rate = ${rate = 135000, 130000, 125000, 120000, 115000, 110000, 105000, 100000, 95000, 90000, 85000, 80000 ! runname}
**.serverA_*.AP[*].applicationEntity.iae.waitvar = 0.2

**.serverA_*.AP[*].applicationEntity.iae.size =  984
**.serverA_*.AP[*].applicationEntity.iae.sizevar =  500

**.serverA_*.AP[*].applicationEntity.iae.countEnd = 1100
**.serverA_*.AP[*].applicationEntity.iae.stopAt = 1200

**.serverA_*.AP[*].applicationEntity.iae.aeName = "Server"

**.clientB_*.nofAP = 9

**.clientB_*.AP[*].applicationEntity.iae.delay = (ancestorIndex(2)%3 == 0 ? 10 us : (ancestorIndex(2)%3 == 1 ? 100 us : 1000 us))
**.clientB_*.AP[*].applicationEntity.iae.pduDroppingProbability  = (ancestorIndex(2)%3 == 0 ? 0.001 : (ancestorIndex(2)%3 == 1 ? 0.01 : 0.1))


**.clientB_1.AP[*].apName = "C1-"+ string(ancestorIndex(0))
**.clientB_2.AP[*].apName = "C2-"+ string(ancestorIndex(0))
**.clientB_3.AP[*].apName = "C3-"+ string(ancestorIndex(0))
**.clientB_4.AP[*].apName = "C4-"+ string(ancestorIndex(0))
**.clientB_5.AP[*].apName = "C5-"+ string(ancestorIndex(0))
**.clientB_6.AP[*].apName = "C6-"+ string(ancestorIndex(0))
**.clientB_7.AP[*].apName = "C7-"+ string(ancestorIndex(0))

**.clientB_*.AP[*].applicationEntity.aeType = "AEConstantClient"

**.clientB_*.AP[*].applicationEntity.iae.startAt = 10

#**.clientB_1.AP[*].applicationEntity.iae.startAt = ancestorIndex(2)*2 + 20 + 0
#**.clientB_2.AP[*].applicationEntity.iae.startAt = ancestorIndex(2)*2 + 20 + 20
#**.clientB_3.AP[*].applicationEntity.iae.startAt = ancestorIndex(2)*2 + 20 + 40
#**.clientB_4.AP[*].applicationEntity.iae.startAt = ancestorIndex(2)*2 + 20 + 60
#**.clientB_5.AP[*].applicationEntity.iae.startAt = ancestorIndex(2)*2 + 20 + 80
#**.clientB_6.AP[*].applicationEntity.iae.startAt = ancestorIndex(2)*2 + 20 + 100
#**.clientB_7.AP[*].applicationEntity.iae.startAt = ancestorIndex(2)*2 + 20 + 120

**.clientB_1.AP[*].applicationEntity.iae.dstApName = "S" + (ancestorIndex(2)<3 ? "1" : (ancestorIndex(2)<6 ? "2" : "3")) + "-" + (ancestorIndex(2)%3 == 0 ? "0" : (ancestorIndex(2)%3 == 1 ? "1" : "2"))
**.clientB_2.AP[*].applicationEntity.iae.dstApName = "S" + (ancestorIndex(2)<3 ? "1" : (ancestorIndex(2)<6 ? "2" : "3")) + "-" + (ancestorIndex(2)%3 == 0 ? "3" : (ancestorIndex(2)%3 == 1 ? "4" : "5"))
**.clientB_3.AP[*].applicationEntity.iae.dstApName = "S" + (ancestorIndex(2)<3 ? "1" : (ancestorIndex(2)<6 ? "2" : "3")) + "-" + (ancestorIndex(2)%3 == 0 ? "6" : (ancestorIndex(2)%3 == 1 ? "7" : "8"))
**.clientB_4.AP[*].applicationEntity.iae.dstApName = "S" + (ancestorIndex(2)<3 ? "1" : (ancestorIndex(2)<6 ? "2" : "3")) + "-" + (ancestorIndex(2)%3 == 0 ? "9" : (ancestorIndex(2)%3 == 1 ? "10" : "11"))
**.clientB_5.AP[*].applicationEntity.iae.dstApName = "S" + (ancestorIndex(2)<3 ? "1" : (ancestorIndex(2)<6 ? "2" : "3")) + "-" + (ancestorIndex(2)%3 == 0 ? "12" : (ancestorIndex(2)%3 == 1 ? "13" : "14"))
**.clientB_6.AP[*].applicationEntity.iae.dstApName = "S" + (ancestorIndex(2)<3 ? "1" : (ancestorIndex(2)<6 ? "2" : "3")) + "-" + (ancestorIndex(2)%3 == 0 ? "15" : (ancestorIndex(2)%3 == 1 ? "16" : "17"))
**.clientB_7.AP[*].applicationEntity.iae.dstApName = "S" + (ancestorIndex(2)<3 ? "1" : (ancestorIndex(2)<6 ? "2" : "3")) + "-" + (ancestorIndex(2)%3 == 0 ? "18" : (ancestorIndex(2)%3 == 1 ? "19" : "20"))

**.clientB_*.AP[*].applicationEntity.iae.aeName = "Client"
**.clientB_*.AP[*].applicationEntity.iae.dstAeName = "Server"


**.serverA_1.AP[3].applicationEntity.iae.printAtEnd = true
**.clientB_3.AP[2].applicationEntity.iae.printAtEnd = true



**.isSelfEnrolled = true

[Config Modular_BE]

**.listener.configname = "BE"

**.defaultThreshQLength = 0
**.defaultMaxQLength =  100

**.router_*.ipcProcess[*].**.queueAllocPolicyName = "QueuePerNQoS"
**.router_*.ipcProcess[*].**.queueIdGenName = "IDPerNQoS"

**.router_*.ipcProcess[*].relayAndMux.maxQPolicyName = "DumbMaxQ"
**.router_*.ipcProcess[*].relayAndMux.qMonitorPolicyName = "ModularMonitor"
**.router_*.ipcProcess[*].relayAndMux.schedPolicyName = "DumbSch"

**.router_*.ipcProcess[*].relayAndMux.queueMonitorPolicy.outputDropSubModule_Type = "MM_SPort_Drop"


[Config Modular_DLDrop]

**.listener.configname = "DL_Drop"

**.defaultThreshQLength = 0
**.defaultMaxQLength =  100

**.router_*.ipcProcess[*].**.queueAllocPolicyName = "QueuePerNQoS"
**.router_*.ipcProcess[*].**.queueIdGenName = "IDPerNQoS"

**.router_*.ipcProcess[*].relayAndMux.maxQPolicyName = "DumbMaxQ"
**.router_*.ipcProcess[*].relayAndMux.qMonitorPolicyName = "ModularMonitor"
**.router_*.ipcProcess[*].relayAndMux.schedPolicyName = "DumbSch"

**.router_*.ipcProcess[*].relayAndMux.queueMonitorPolicy.outputDropSubModule_Type = "MM_DL_Drop"
**.router_*.ipcProcess[*].relayAndMux.queueMonitorPolicy.outputDropSubModule.data = xmldoc("modules.xml", "Configuration/DLDROP")



[Config Modular_eDLDrop]

**.listener.configname = "eDL_Drop"

**.defaultThreshQLength = 0
**.defaultMaxQLength =  100

**.router_*.ipcProcess[*].**.queueAllocPolicyName = "QueuePerNQoS"
**.router_*.ipcProcess[*].**.queueIdGenName = "IDPerNQoS"

**.router_*.ipcProcess[*].relayAndMux.maxQPolicyName = "DumbMaxQ"
**.router_*.ipcProcess[*].relayAndMux.qMonitorPolicyName = "ModularMonitor"
**.router_*.ipcProcess[*].relayAndMux.schedPolicyName = "DumbSch"

**.router_*.ipcProcess[*].relayAndMux.queueMonitorPolicy.outputDropSubModule_Type = "MM_eDL_Drop"
**.router_*.ipcProcess[*].relayAndMux.queueMonitorPolicy.outputDropSubModule.data = xmldoc("modules.xml", "Configuration/eDLDROP")


[Config Modular_DQDrop]

**.listener.configname = "DQ_Drop"

**.defaultThreshQLength = 0
**.defaultMaxQLength =  100

**.router_*.ipcProcess[*].**.queueAllocPolicyName = "QueuePerNQoS"
**.router_*.ipcProcess[*].**.queueIdGenName = "IDPerNQoS"

**.router_*.ipcProcess[*].relayAndMux.maxQPolicyName = "DumbMaxQ"
**.router_*.ipcProcess[*].relayAndMux.qMonitorPolicyName = "ModularMonitor"
**.router_*.ipcProcess[*].relayAndMux.schedPolicyName = "DumbSch"

**.router_*.ipcProcess[*].relayAndMux.queueMonitorPolicy.outputDropSubModule_Type = "MM_DQ_Drop"
**.router_*.ipcProcess[*].relayAndMux.queueMonitorPolicy.outputDropSubModule.data = xmldoc("modules.xml", "Configuration/DQQueueDrop")





[Config Modular_DLOut]

**.listener.configname = "DL_Out"

**.defaultThreshQLength = 0
**.defaultMaxQLength =  100

**.router_*.ipcProcess[*].**.queueAllocPolicyName = "QueuePerNQoS"
**.router_*.ipcProcess[*].**.queueIdGenName = "IDPerNQoS"

**.router_*.ipcProcess[*].relayAndMux.maxQPolicyName = "DumbMaxQ"
**.router_*.ipcProcess[*].relayAndMux.qMonitorPolicyName = "ModularMonitor"
**.router_*.ipcProcess[*].relayAndMux.schedPolicyName = "DumbSch"

**.router_*.ipcProcess[*].relayAndMux.queueMonitorPolicy.outputDropSubModule_Type = "MM_SPort_Drop"

**.router_*.ipcProcess[*].relayAndMux.queueMonitorPolicy.outputOutSubModule_Type = "MM_DL_Out"
**.router_*.ipcProcess[*].relayAndMux.queueMonitorPolicy.outputOutSubModule.data = xmldoc("modules.xml", "Configuration/DLOUT")



[Config Modular_POut]

**.listener.configname = "P_Out"

**.defaultThreshQLength = 0
**.defaultMaxQLength =  100

**.router_*.ipcProcess[*].**.queueAllocPolicyName = "QueuePerNQoS"
**.router_*.ipcProcess[*].**.queueIdGenName = "IDPerNQoS"

**.router_*.ipcProcess[*].relayAndMux.maxQPolicyName = "DumbMaxQ"
**.router_*.ipcProcess[*].relayAndMux.qMonitorPolicyName = "ModularMonitor"
**.router_*.ipcProcess[*].relayAndMux.schedPolicyName = "DumbSch"

**.router_*.ipcProcess[*].relayAndMux.queueMonitorPolicy.outputDropSubModule_Type = "MM_SPort_Drop"

**.router_*.ipcProcess[*].relayAndMux.queueMonitorPolicy.outputOutSubModule_Type = "MM_P_Out"
**.router_*.ipcProcess[*].relayAndMux.queueMonitorPolicy.outputOutSubModule.data = xmldoc("modules.xml", "Configuration/POUT")


[Config Modular_eDLOut]

**.listener.configname = "eDL_Out"

**.defaultThreshQLength = 0
**.defaultMaxQLength =  100

**.router_*.ipcProcess[*].**.queueAllocPolicyName = "QueuePerNQoS"
**.router_*.ipcProcess[*].**.queueIdGenName = "IDPerNQoS"

**.router_*.ipcProcess[*].relayAndMux.maxQPolicyName = "DumbMaxQ"
**.router_*.ipcProcess[*].relayAndMux.qMonitorPolicyName = "ModularMonitor"
**.router_*.ipcProcess[*].relayAndMux.schedPolicyName = "DumbSch"

**.router_*.ipcProcess[*].relayAndMux.queueMonitorPolicy.outputDropSubModule_Type = "MM_SPort_Drop"

**.router_*.ipcProcess[*].relayAndMux.queueMonitorPolicy.outputOutSubModule_Type = "MM_eDL_Out"
**.router_*.ipcProcess[*].relayAndMux.queueMonitorPolicy.outputOutSubModule.data = xmldoc("modules.xml", "Configuration/DLOUT")
**.router_*.ipcProcess[*].relayAndMux.queueMonitorPolicy.outputOutSubModule.data2 = xmldoc("modules.xml", "Configuration/prioritySkip")


[Config Modular_minDLOut]

**.listener.configname = "minDL_Out"

**.defaultThreshQLength = 0
**.defaultMaxQLength =  100

**.router_*.ipcProcess[*].**.queueAllocPolicyName = "QueuePerNQoS"
**.router_*.ipcProcess[*].**.queueIdGenName = "IDPerNQoS"

**.router_*.ipcProcess[*].relayAndMux.maxQPolicyName = "DumbMaxQ"
**.router_*.ipcProcess[*].relayAndMux.qMonitorPolicyName = "ModularMonitor"
**.router_*.ipcProcess[*].relayAndMux.schedPolicyName = "DumbSch"

**.router_*.ipcProcess[*].relayAndMux.queueMonitorPolicy.outputDropSubModule_Type = "MM_SPort_Drop"

**.router_*.ipcProcess[*].relayAndMux.queueMonitorPolicy.outputOutSubModule_Type = "MM_maxDelay_Out"
**.router_*.ipcProcess[*].relayAndMux.queueMonitorPolicy.outputOutSubModule.data = xmldoc("modules.xml", "Configuration/maxDel")





[Config Modular_DQOut]

**.listener.configname = "DQ_OUT"

**.defaultThreshQLength = 0
**.defaultMaxQLength =  100

**.router_*.ipcProcess[*].**.queueAllocPolicyName = "QueuePerNQoS"
**.router_*.ipcProcess[*].**.queueIdGenName = "IDPerNQoS"

**.router_*.ipcProcess[*].relayAndMux.maxQPolicyName = "DumbMaxQ"
**.router_*.ipcProcess[*].relayAndMux.qMonitorPolicyName = "ModularMonitor"
**.router_*.ipcProcess[*].relayAndMux.schedPolicyName = "DumbSch"

**.router_*.ipcProcess[*].relayAndMux.queueMonitorPolicy.outputDropSubModule_Type = "MM_SPort_Drop"

**.router_*.ipcProcess[*].relayAndMux.queueMonitorPolicy.outputOutSubModule_Type = "MM_DQ_Out"
**.router_*.ipcProcess[*].relayAndMux.queueMonitorPolicy.outputOutSubModule.data = xmldoc("modules.xml", "Configuration/DQQueuePriority")

**.router_1.ipcProcess[0].relayAndMux.queueMonitorPolicy.outputOutSubModule.rateUnit = 1048576 * 900 * 3 
**.router_1.ipcProcess[1].relayAndMux.queueMonitorPolicy.outputOutSubModule.rateUnit = 1048576 * 900 * 3
**.router_1.ipcProcess[2].relayAndMux.queueMonitorPolicy.outputOutSubModule.rateUnit = 1048576 * 900 * 5
**.router_1.ipcProcess[3].relayAndMux.queueMonitorPolicy.outputOutSubModule.rateUnit = 1048576 * 900 * 20

**.router_2.ipcProcess[0].relayAndMux.queueMonitorPolicy.outputOutSubModule.rateUnit = 1048576 * 900 * 3 
**.router_2.ipcProcess[1].relayAndMux.queueMonitorPolicy.outputOutSubModule.rateUnit = 1048576 * 900 * 1
**.router_2.ipcProcess[2].relayAndMux.queueMonitorPolicy.outputOutSubModule.rateUnit = 1048576 * 900 * 3
**.router_2.ipcProcess[3].relayAndMux.queueMonitorPolicy.outputOutSubModule.rateUnit = 1048576 * 900 * 20

**.router_3.ipcProcess[0].relayAndMux.queueMonitorPolicy.outputOutSubModule.rateUnit = 1048576 * 900 * 3 
**.router_3.ipcProcess[1].relayAndMux.queueMonitorPolicy.outputOutSubModule.rateUnit = 1048576 * 900 * 3
**.router_3.ipcProcess[2].relayAndMux.queueMonitorPolicy.outputOutSubModule.rateUnit = 1048576 * 900 * 4
**.router_3.ipcProcess[3].relayAndMux.queueMonitorPolicy.outputOutSubModule.rateUnit = 1048576 * 900 * 20

**.router_4.ipcProcess[0].relayAndMux.queueMonitorPolicy.outputOutSubModule.rateUnit = 1048576 * 900 * 5 
**.router_4.ipcProcess[1].relayAndMux.queueMonitorPolicy.outputOutSubModule.rateUnit = 1048576 * 900 * 4
**.router_4.ipcProcess[2].relayAndMux.queueMonitorPolicy.outputOutSubModule.rateUnit = 1048576 * 900 * 6
**.router_4.ipcProcess[3].relayAndMux.queueMonitorPolicy.outputOutSubModule.rateUnit = 1048576 * 900 * 4
**.router_4.ipcProcess[4].relayAndMux.queueMonitorPolicy.outputOutSubModule.rateUnit = 1048576 * 900 * 20

**.router_5.ipcProcess[0].relayAndMux.queueMonitorPolicy.outputOutSubModule.rateUnit = 1048576 * 900 * 3
**.router_5.ipcProcess[1].relayAndMux.queueMonitorPolicy.outputOutSubModule.rateUnit = 1048576 * 900 * 4
**.router_5.ipcProcess[2].relayAndMux.queueMonitorPolicy.outputOutSubModule.rateUnit = 1048576 * 900 * 1
**.router_5.ipcProcess[3].relayAndMux.queueMonitorPolicy.outputOutSubModule.rateUnit = 1048576 * 900 * 20

**.router_6.ipcProcess[0].relayAndMux.queueMonitorPolicy.outputOutSubModule.rateUnit = 1048576 * 900 * 6
**.router_6.ipcProcess[1].relayAndMux.queueMonitorPolicy.outputOutSubModule.rateUnit = 1048576 * 900 * 5
**.router_6.ipcProcess[2].relayAndMux.queueMonitorPolicy.outputOutSubModule.rateUnit = 1048576 * 900 * 2
**.router_6.ipcProcess[3].relayAndMux.queueMonitorPolicy.outputOutSubModule.rateUnit = 1048576 * 900 * 20

**.router_7.ipcProcess[0].relayAndMux.queueMonitorPolicy.outputOutSubModule.rateUnit = 1048576 * 900 * 5
**.router_7.ipcProcess[1].relayAndMux.queueMonitorPolicy.outputOutSubModule.rateUnit = 1048576 * 900 * 3
**.router_7.ipcProcess[2].relayAndMux.queueMonitorPolicy.outputOutSubModule.rateUnit = 1048576 * 900 * 20

**.router_8.ipcProcess[0].relayAndMux.queueMonitorPolicy.outputOutSubModule.rateUnit = 1048576 * 900 * 4 
**.router_8.ipcProcess[1].relayAndMux.queueMonitorPolicy.outputOutSubModule.rateUnit = 1048576 * 900 * 4
**.router_8.ipcProcess[2].relayAndMux.queueMonitorPolicy.outputOutSubModule.rateUnit = 1048576 * 900 * 5
**.router_8.ipcProcess[3].relayAndMux.queueMonitorPolicy.outputOutSubModule.rateUnit = 1048576 * 900 * 20

**.router_9.ipcProcess[0].relayAndMux.queueMonitorPolicy.outputOutSubModule.rateUnit = 1048576 * 900 * 2 
**.router_9.ipcProcess[1].relayAndMux.queueMonitorPolicy.outputOutSubModule.rateUnit = 1048576 * 900 * 3
**.router_9.ipcProcess[2].relayAndMux.queueMonitorPolicy.outputOutSubModule.rateUnit = 1048576 * 900 * 4
**.router_9.ipcProcess[3].relayAndMux.queueMonitorPolicy.outputOutSubModule.rateUnit = 1048576 * 900 * 20

**.router_a.ipcProcess[0].relayAndMux.queueMonitorPolicy.outputOutSubModule.rateUnit = 1048576 * 900 * 4 
**.router_a.ipcProcess[1].relayAndMux.queueMonitorPolicy.outputOutSubModule.rateUnit = 1048576 * 900 * 1
**.router_a.ipcProcess[2].relayAndMux.queueMonitorPolicy.outputOutSubModule.rateUnit = 1048576 * 900 * 5
**.router_a.ipcProcess[3].relayAndMux.queueMonitorPolicy.outputOutSubModule.rateUnit = 1048576 * 900 * 20



[Config Modular_WFQ]

**.listener.configname = "WFQ_Out"

**.defaultThreshQLength = 0
**.defaultMaxQLength =  100

**.router_*.ipcProcess[*].**.queueAllocPolicyName = "QueuePerNQoS"
**.router_*.ipcProcess[*].**.queueIdGenName = "IDPerNQoS"

**.router_*.ipcProcess[*].relayAndMux.maxQPolicyName = "DumbMaxQ"
**.router_*.ipcProcess[*].relayAndMux.qMonitorPolicyName = "ModularMonitor"
**.router_*.ipcProcess[*].relayAndMux.schedPolicyName = "DumbSch"

**.router_*.ipcProcess[*].relayAndMux.queueMonitorPolicy.outputDropSubModule_Type = "MM_WFQ_Drop"
**.router_*.ipcProcess[*].relayAndMux.queueMonitorPolicy.outputDropSubModule.data = xmldoc("modules.xml", "Configuration/WFQDROP")

**.router_*.ipcProcess[*].relayAndMux.queueMonitorPolicy.outputOutSubModule_Type = "MM_WFQ_Out"
**.router_*.ipcProcess[*].relayAndMux.queueMonitorPolicy.outputOutSubModule.data = xmldoc("modules.xml", "Configuration/WFQOUT")



[Config Modular_psDQOut]

**.listener.configname = "psDQ_OUT"

**.defaultThreshQLength = 0
**.defaultMaxQLength =  100

**.router_*.ipcProcess[*].**.queueAllocPolicyName = "QueuePerNQoS"
**.router_*.ipcProcess[*].**.queueIdGenName = "IDPerNQoS"

**.router_*.ipcProcess[*].relayAndMux.maxQPolicyName = "DumbMaxQ"
**.router_*.ipcProcess[*].relayAndMux.qMonitorPolicyName = "ModularMonitor"
**.router_*.ipcProcess[*].relayAndMux.schedPolicyName = "DumbSch"

**.router_*.ipcProcess[*].relayAndMux.queueMonitorPolicy.outputDropSubModule_Type = "MM_SPort_Drop"

**.router_*.ipcProcess[*].relayAndMux.queueMonitorPolicy.outputOutSubModule_Type = "MM_psDQ_Out"
**.router_*.ipcProcess[*].relayAndMux.queueMonitorPolicy.outputOutSubModule.data = xmldoc("modules.xml", "Configuration/DQQueueOut")

**.router_1.ipcProcess[0].relayAndMux.queueMonitorPolicy.outputOutSubModule.rateUnit = 50 * 1048576 * 900 * 3 
**.router_1.ipcProcess[1].relayAndMux.queueMonitorPolicy.outputOutSubModule.rateUnit = 50 * 1048576 * 900 * 3
**.router_1.ipcProcess[2].relayAndMux.queueMonitorPolicy.outputOutSubModule.rateUnit = 50 * 1048576 * 900 * 5
**.router_1.ipcProcess[3].relayAndMux.queueMonitorPolicy.outputOutSubModule.rateUnit = 50 * 1048576 * 900 * 20

**.router_2.ipcProcess[0].relayAndMux.queueMonitorPolicy.outputOutSubModule.rateUnit = 50 * 1048576 * 900 * 3 
**.router_2.ipcProcess[1].relayAndMux.queueMonitorPolicy.outputOutSubModule.rateUnit = 50 * 1048576 * 900 * 1
**.router_2.ipcProcess[2].relayAndMux.queueMonitorPolicy.outputOutSubModule.rateUnit = 50 * 1048576 * 900 * 3
**.router_2.ipcProcess[3].relayAndMux.queueMonitorPolicy.outputOutSubModule.rateUnit = 50 * 1048576 * 900 * 20

**.router_3.ipcProcess[0].relayAndMux.queueMonitorPolicy.outputOutSubModule.rateUnit = 50 * 1048576 * 900 * 3 
**.router_3.ipcProcess[1].relayAndMux.queueMonitorPolicy.outputOutSubModule.rateUnit = 50 * 1048576 * 900 * 3
**.router_3.ipcProcess[2].relayAndMux.queueMonitorPolicy.outputOutSubModule.rateUnit = 50 * 1048576 * 900 * 4
**.router_3.ipcProcess[3].relayAndMux.queueMonitorPolicy.outputOutSubModule.rateUnit = 50 * 1048576 * 900 * 20

**.router_4.ipcProcess[0].relayAndMux.queueMonitorPolicy.outputOutSubModule.rateUnit = 50 * 1048576 * 900 * 5 
**.router_4.ipcProcess[1].relayAndMux.queueMonitorPolicy.outputOutSubModule.rateUnit = 50 * 1048576 * 900 * 4
**.router_4.ipcProcess[2].relayAndMux.queueMonitorPolicy.outputOutSubModule.rateUnit = 50 * 1048576 * 900 * 6
**.router_4.ipcProcess[3].relayAndMux.queueMonitorPolicy.outputOutSubModule.rateUnit = 50 * 1048576 * 900 * 4
**.router_4.ipcProcess[4].relayAndMux.queueMonitorPolicy.outputOutSubModule.rateUnit = 50 * 1048576 * 900 * 20

**.router_5.ipcProcess[0].relayAndMux.queueMonitorPolicy.outputOutSubModule.rateUnit = 50 * 1048576 * 900 * 3
**.router_5.ipcProcess[1].relayAndMux.queueMonitorPolicy.outputOutSubModule.rateUnit = 50 * 1048576 * 900 * 4
**.router_5.ipcProcess[2].relayAndMux.queueMonitorPolicy.outputOutSubModule.rateUnit = 50 * 1048576 * 900 * 1
**.router_5.ipcProcess[3].relayAndMux.queueMonitorPolicy.outputOutSubModule.rateUnit = 50 * 1048576 * 900 * 20

**.router_6.ipcProcess[0].relayAndMux.queueMonitorPolicy.outputOutSubModule.rateUnit = 50 * 1048576 * 900 * 6
**.router_6.ipcProcess[1].relayAndMux.queueMonitorPolicy.outputOutSubModule.rateUnit = 50 * 1048576 * 900 * 5
**.router_6.ipcProcess[2].relayAndMux.queueMonitorPolicy.outputOutSubModule.rateUnit = 50 * 1048576 * 900 * 2
**.router_6.ipcProcess[3].relayAndMux.queueMonitorPolicy.outputOutSubModule.rateUnit = 50 * 1048576 * 900 * 20

**.router_7.ipcProcess[0].relayAndMux.queueMonitorPolicy.outputOutSubModule.rateUnit = 50 * 1048576 * 900 * 5
**.router_7.ipcProcess[1].relayAndMux.queueMonitorPolicy.outputOutSubModule.rateUnit = 50 * 1048576 * 900 * 3
**.router_7.ipcProcess[2].relayAndMux.queueMonitorPolicy.outputOutSubModule.rateUnit = 50 * 1048576 * 900 * 20

**.router_8.ipcProcess[0].relayAndMux.queueMonitorPolicy.outputOutSubModule.rateUnit = 50 * 1048576 * 900 * 4 
**.router_8.ipcProcess[1].relayAndMux.queueMonitorPolicy.outputOutSubModule.rateUnit = 50 * 1048576 * 900 * 4
**.router_8.ipcProcess[2].relayAndMux.queueMonitorPolicy.outputOutSubModule.rateUnit = 50 * 1048576 * 900 * 5
**.router_8.ipcProcess[3].relayAndMux.queueMonitorPolicy.outputOutSubModule.rateUnit = 50 * 1048576 * 900 * 20

**.router_9.ipcProcess[0].relayAndMux.queueMonitorPolicy.outputOutSubModule.rateUnit = 50 * 1048576 * 900 * 2 
**.router_9.ipcProcess[1].relayAndMux.queueMonitorPolicy.outputOutSubModule.rateUnit = 50 * 1048576 * 900 * 3
**.router_9.ipcProcess[2].relayAndMux.queueMonitorPolicy.outputOutSubModule.rateUnit = 50 * 1048576 * 900 * 4
**.router_9.ipcProcess[3].relayAndMux.queueMonitorPolicy.outputOutSubModule.rateUnit = 50 * 1048576 * 900 * 20

**.router_a.ipcProcess[0].relayAndMux.queueMonitorPolicy.outputOutSubModule.rateUnit = 50 * 1048576 * 900 * 4 
**.router_a.ipcProcess[1].relayAndMux.queueMonitorPolicy.outputOutSubModule.rateUnit = 50 * 1048576 * 900 * 1
**.router_a.ipcProcess[2].relayAndMux.queueMonitorPolicy.outputOutSubModule.rateUnit = 50 * 1048576 * 900 * 5
**.router_a.ipcProcess[3].relayAndMux.queueMonitorPolicy.outputOutSubModule.rateUnit = 50 * 1048576 * 900 * 20

