[General]
network = CongestedNode2
seed-set = ${runnumber}
sim-time-limit =  1min
debug-on-errors = true

#Addressing settings
**.router.*.ipcAddress = "0"
**.router.ipcProcess0.difName = "Shim-1"
**.router.ipcProcess1.difName = "Shim-2"
**.router.relayIpc.difName = "Over"

**.host1.*.ipcAddress = "1"
**.host1.ipcProcess0.difName = "Shim-1"
**.host1.ipcProcess1.difName = "Over"

**.host2.*.ipcAddress = "2"
**.host2.ipcProcess0.difName = "Shim-2"
**.host2.ipcProcess1.difName = "Over"


#QoS settings
**.ra.qoscubesData = xmldoc("QoS.xml", "Configuration/QoSCubesSet")
**.ra.qosReqData = xmldoc("QoS.xml", "Configuration/QoSReqSet")

**.fa.createRequestTimeout = 15s

#Routing settings
**.router.relayIpc.resourceAllocator.pdufgPolicyName = "QoSDomainGenerator"
**.router.relayIpc.relayAndMux.ForwardingPolicyName = "QoSTable"
**.router.relayIpc.routingPolicyName = "DomainRouting"

**.host*.ipcProcess1.resourceAllocator.pdufgPolicyName = "QoSDomainGenerator"
**.host*.ipcProcess1.relayAndMux.ForwardingPolicyName = "QoSTable"
**.host*.ipcProcess1.routingPolicyName = "DomainRouting"

**.host1.ipcProcess1.relayAndMux.pduForwardingPolicy.printAtEnd = true
**.host*.ipcProcess1.routingPolicy.printAtEnd = false



#DIF Allocator settings
**.difAllocator.configData = xmldoc("config.xml", "Configuration/DA")
**.difAllocator.directory.configData = xmldoc("config.xml", "Configuration/DA")

#Shim-Flows allocation
**.ra.preallocation = xmldoc("config.xml", "Configuration/ConnectionSets/ConnectionSet[@id='all']/")

**.flowAllocator.newFlowReqPolicyType = "MinComparer"

#Apps Configuration
**.nofAP = 45
**.iae.aeName = "Stream"
**.applicationEntity.aeType = "AESender"
**.host2.AP[*].applicationEntity.iae.startAt = 0
**.host2.AP[*].applicationEntity.iae.stopAt = 0
**.host1.AP[*].applicationEntity.iae.stopAt = 21s
**.host1.AP[*].applicationEntity.iae.size = 1024
**.host1.AP[*].applicationEntity.iae.sizevar = 400
**.host1.AP[0].applicationEntity.iae.pduburst = 10
**.host1.AP[0].applicationEntity.iae.startAt = 6s
**.host1.AP[0].applicationEntity.iae.sendAfter = 14s
**.host1.AP[0].apName = "App1_1_0"
**.host2.AP[0].apName = "App2_1_0"
**.host1.AP[0].applicationEntity.iae.dstApName = "App2_1_0"
**.host*.AP[0].applicationEntity.iae.delay = 15us
**.host*.AP[0].applicationEntity.iae.pduDroppingProbability = 0.001
**.host1.AP[0].applicationEntity.iae.rate = 0.001
**.host1.AP[0].applicationEntity.iae.ratevar = 6.666666666666666E-4
**.host1.AP[1].applicationEntity.iae.startAt = 6s
**.host1.AP[1].applicationEntity.iae.sendAfter = 14s
**.host1.AP[1].apName = "App1_1_1"
**.host2.AP[1].apName = "App2_1_1"
**.host1.AP[1].applicationEntity.iae.dstApName = "App2_1_1"
**.host*.AP[1].applicationEntity.iae.delay = 15us
**.host*.AP[1].applicationEntity.iae.pduDroppingProbability = 0.001
**.host1.AP[1].applicationEntity.iae.rate = 0.001
**.host1.AP[1].applicationEntity.iae.ratevar = 6.666666666666666E-4
**.host1.AP[2].applicationEntity.iae.startAt = 6s
**.host1.AP[2].applicationEntity.iae.sendAfter = 14s
**.host1.AP[2].apName = "App1_1_2"
**.host2.AP[2].apName = "App2_1_2"
**.host1.AP[2].applicationEntity.iae.dstApName = "App2_1_2"
**.host*.AP[2].applicationEntity.iae.delay = 15us
**.host*.AP[2].applicationEntity.iae.pduDroppingProbability = 0.001
**.host1.AP[2].applicationEntity.iae.rate = 0.001
**.host1.AP[2].applicationEntity.iae.ratevar = 6.666666666666666E-4
**.host1.AP[3].applicationEntity.iae.startAt = 6s
**.host1.AP[3].applicationEntity.iae.sendAfter = 14s
**.host1.AP[3].apName = "App1_1_3"
**.host2.AP[3].apName = "App2_1_3"
**.host1.AP[3].applicationEntity.iae.dstApName = "App2_1_3"
**.host*.AP[3].applicationEntity.iae.delay = 15us
**.host*.AP[3].applicationEntity.iae.pduDroppingProbability = 0.001
**.host1.AP[3].applicationEntity.iae.rate = 0.001
**.host1.AP[3].applicationEntity.iae.ratevar = 6.666666666666666E-4
**.host1.AP[4].applicationEntity.iae.startAt = 6s
**.host1.AP[4].applicationEntity.iae.sendAfter = 14s
**.host1.AP[4].apName = "App1_1_4"
**.host2.AP[4].apName = "App2_1_4"
**.host1.AP[4].applicationEntity.iae.dstApName = "App2_1_4"
**.host*.AP[4].applicationEntity.iae.delay = 15us
**.host*.AP[4].applicationEntity.iae.pduDroppingProbability = 0.001
**.host1.AP[4].applicationEntity.iae.rate = 0.001
**.host1.AP[4].applicationEntity.iae.ratevar = 6.666666666666666E-4
**.host1.AP[5].applicationEntity.iae.startAt = 7s
**.host1.AP[5].applicationEntity.iae.sendAfter = 13s
**.host1.AP[5].apName = "App1_2_0"
**.host2.AP[5].apName = "App2_2_0"
**.host1.AP[5].applicationEntity.iae.dstApName = "App2_2_0"
**.host*.AP[5].applicationEntity.iae.delay = 15us
**.host*.AP[5].applicationEntity.iae.pduDroppingProbability = 0.01
**.host1.AP[5].applicationEntity.iae.rate = 5.0E-4
**.host1.AP[5].applicationEntity.iae.ratevar = 3.333333333333333E-4
**.host1.AP[6].applicationEntity.iae.startAt = 7s
**.host1.AP[6].applicationEntity.iae.sendAfter = 13s
**.host1.AP[6].apName = "App1_2_1"
**.host2.AP[6].apName = "App2_2_1"
**.host1.AP[6].applicationEntity.iae.dstApName = "App2_2_1"
**.host*.AP[6].applicationEntity.iae.delay = 15us
**.host*.AP[6].applicationEntity.iae.pduDroppingProbability = 0.01
**.host1.AP[6].applicationEntity.iae.rate = 5.0E-4
**.host1.AP[6].applicationEntity.iae.ratevar = 3.333333333333333E-4
**.host1.AP[7].applicationEntity.iae.startAt = 7s
**.host1.AP[7].applicationEntity.iae.sendAfter = 13s
**.host1.AP[7].apName = "App1_2_2"
**.host2.AP[7].apName = "App2_2_2"
**.host1.AP[7].applicationEntity.iae.dstApName = "App2_2_2"
**.host*.AP[7].applicationEntity.iae.delay = 15us
**.host*.AP[7].applicationEntity.iae.pduDroppingProbability = 0.01
**.host1.AP[7].applicationEntity.iae.rate = 5.0E-4
**.host1.AP[7].applicationEntity.iae.ratevar = 3.333333333333333E-4
**.host1.AP[8].applicationEntity.iae.startAt = 7s
**.host1.AP[8].applicationEntity.iae.sendAfter = 13s
**.host1.AP[8].apName = "App1_2_3"
**.host2.AP[8].apName = "App2_2_3"
**.host1.AP[8].applicationEntity.iae.dstApName = "App2_2_3"
**.host*.AP[8].applicationEntity.iae.delay = 15us
**.host*.AP[8].applicationEntity.iae.pduDroppingProbability = 0.01
**.host1.AP[8].applicationEntity.iae.rate = 5.0E-4
**.host1.AP[8].applicationEntity.iae.ratevar = 3.333333333333333E-4
**.host1.AP[9].applicationEntity.iae.startAt = 7s
**.host1.AP[9].applicationEntity.iae.sendAfter = 13s
**.host1.AP[9].apName = "App1_2_4"
**.host2.AP[9].apName = "App2_2_4"
**.host1.AP[9].applicationEntity.iae.dstApName = "App2_2_4"
**.host*.AP[9].applicationEntity.iae.delay = 15us
**.host*.AP[9].applicationEntity.iae.pduDroppingProbability = 0.01
**.host1.AP[9].applicationEntity.iae.rate = 5.0E-4
**.host1.AP[9].applicationEntity.iae.ratevar = 3.333333333333333E-4
**.host1.AP[10].applicationEntity.iae.startAt = 8s
**.host1.AP[10].applicationEntity.iae.sendAfter = 12s
**.host1.AP[10].apName = "App1_3_0"
**.host2.AP[10].apName = "App2_3_0"
**.host1.AP[10].applicationEntity.iae.dstApName = "App2_3_0"
**.host*.AP[10].applicationEntity.iae.delay = 15us
**.host*.AP[10].applicationEntity.iae.pduDroppingProbability = 0.1
**.host1.AP[10].applicationEntity.iae.rate = 3.333333333333333E-4
**.host1.AP[10].applicationEntity.iae.ratevar = 2.222222222222222E-4
**.host1.AP[11].applicationEntity.iae.startAt = 8s
**.host1.AP[11].applicationEntity.iae.sendAfter = 12s
**.host1.AP[11].apName = "App1_3_1"
**.host2.AP[11].apName = "App2_3_1"
**.host1.AP[11].applicationEntity.iae.dstApName = "App2_3_1"
**.host*.AP[11].applicationEntity.iae.delay = 15us
**.host*.AP[11].applicationEntity.iae.pduDroppingProbability = 0.1
**.host1.AP[11].applicationEntity.iae.rate = 3.333333333333333E-4
**.host1.AP[11].applicationEntity.iae.ratevar = 2.222222222222222E-4
**.host1.AP[12].applicationEntity.iae.startAt = 8s
**.host1.AP[12].applicationEntity.iae.sendAfter = 12s
**.host1.AP[12].apName = "App1_3_2"
**.host2.AP[12].apName = "App2_3_2"
**.host1.AP[12].applicationEntity.iae.dstApName = "App2_3_2"
**.host*.AP[12].applicationEntity.iae.delay = 15us
**.host*.AP[12].applicationEntity.iae.pduDroppingProbability = 0.1
**.host1.AP[12].applicationEntity.iae.rate = 3.333333333333333E-4
**.host1.AP[12].applicationEntity.iae.ratevar = 2.222222222222222E-4
**.host1.AP[13].applicationEntity.iae.startAt = 8s
**.host1.AP[13].applicationEntity.iae.sendAfter = 12s
**.host1.AP[13].apName = "App1_3_3"
**.host2.AP[13].apName = "App2_3_3"
**.host1.AP[13].applicationEntity.iae.dstApName = "App2_3_3"
**.host*.AP[13].applicationEntity.iae.delay = 15us
**.host*.AP[13].applicationEntity.iae.pduDroppingProbability = 0.1
**.host1.AP[13].applicationEntity.iae.rate = 3.333333333333333E-4
**.host1.AP[13].applicationEntity.iae.ratevar = 2.222222222222222E-4
**.host1.AP[14].applicationEntity.iae.startAt = 8s
**.host1.AP[14].applicationEntity.iae.sendAfter = 12s
**.host1.AP[14].apName = "App1_3_4"
**.host2.AP[14].apName = "App2_3_4"
**.host1.AP[14].applicationEntity.iae.dstApName = "App2_3_4"
**.host*.AP[14].applicationEntity.iae.delay = 15us
**.host*.AP[14].applicationEntity.iae.pduDroppingProbability = 0.1
**.host1.AP[14].applicationEntity.iae.rate = 3.333333333333333E-4
**.host1.AP[14].applicationEntity.iae.ratevar = 2.222222222222222E-4
**.host1.AP[15].applicationEntity.iae.startAt = 9s
**.host1.AP[15].applicationEntity.iae.sendAfter = 11s
**.host1.AP[15].apName = "App1_4_0"
**.host2.AP[15].apName = "App2_4_0"
**.host1.AP[15].applicationEntity.iae.dstApName = "App2_4_0"
**.host*.AP[15].applicationEntity.iae.delay = 150us
**.host*.AP[15].applicationEntity.iae.pduDroppingProbability = 0.001
**.host1.AP[15].applicationEntity.iae.rate = 1.0E-4
**.host1.AP[15].applicationEntity.iae.ratevar = 6.666666666666667E-5
**.host1.AP[16].applicationEntity.iae.startAt = 9s
**.host1.AP[16].applicationEntity.iae.sendAfter = 11s
**.host1.AP[16].apName = "App1_4_1"
**.host2.AP[16].apName = "App2_4_1"
**.host1.AP[16].applicationEntity.iae.dstApName = "App2_4_1"
**.host*.AP[16].applicationEntity.iae.delay = 150us
**.host*.AP[16].applicationEntity.iae.pduDroppingProbability = 0.001
**.host1.AP[16].applicationEntity.iae.rate = 1.0E-4
**.host1.AP[16].applicationEntity.iae.ratevar = 6.666666666666667E-5
**.host1.AP[17].applicationEntity.iae.startAt = 9s
**.host1.AP[17].applicationEntity.iae.sendAfter = 11s
**.host1.AP[17].apName = "App1_4_2"
**.host2.AP[17].apName = "App2_4_2"
**.host1.AP[17].applicationEntity.iae.dstApName = "App2_4_2"
**.host*.AP[17].applicationEntity.iae.delay = 150us
**.host*.AP[17].applicationEntity.iae.pduDroppingProbability = 0.001
**.host1.AP[17].applicationEntity.iae.rate = 1.0E-4
**.host1.AP[17].applicationEntity.iae.ratevar = 6.666666666666667E-5
**.host1.AP[18].applicationEntity.iae.startAt = 9s
**.host1.AP[18].applicationEntity.iae.sendAfter = 11s
**.host1.AP[18].apName = "App1_4_3"
**.host2.AP[18].apName = "App2_4_3"
**.host1.AP[18].applicationEntity.iae.dstApName = "App2_4_3"
**.host*.AP[18].applicationEntity.iae.delay = 150us
**.host*.AP[18].applicationEntity.iae.pduDroppingProbability = 0.001
**.host1.AP[18].applicationEntity.iae.rate = 1.0E-4
**.host1.AP[18].applicationEntity.iae.ratevar = 6.666666666666667E-5
**.host1.AP[19].applicationEntity.iae.startAt = 9s
**.host1.AP[19].applicationEntity.iae.sendAfter = 11s
**.host1.AP[19].apName = "App1_4_4"
**.host2.AP[19].apName = "App2_4_4"
**.host1.AP[19].applicationEntity.iae.dstApName = "App2_4_4"
**.host*.AP[19].applicationEntity.iae.delay = 150us
**.host*.AP[19].applicationEntity.iae.pduDroppingProbability = 0.001
**.host1.AP[19].applicationEntity.iae.rate = 1.0E-4
**.host1.AP[19].applicationEntity.iae.ratevar = 6.666666666666667E-5
**.host1.AP[20].applicationEntity.iae.startAt = 10s
**.host1.AP[20].applicationEntity.iae.sendAfter = 10s
**.host1.AP[20].apName = "App1_5_0"
**.host2.AP[20].apName = "App2_5_0"
**.host1.AP[20].applicationEntity.iae.dstApName = "App2_5_0"
**.host*.AP[20].applicationEntity.iae.delay = 150us
**.host*.AP[20].applicationEntity.iae.pduDroppingProbability = 0.01
**.host1.AP[20].applicationEntity.iae.rate = 9.090909090909092E-5
**.host1.AP[20].applicationEntity.iae.ratevar = 6.060606060606061E-5
**.host1.AP[21].applicationEntity.iae.startAt = 10s
**.host1.AP[21].applicationEntity.iae.sendAfter = 10s
**.host1.AP[21].apName = "App1_5_1"
**.host2.AP[21].apName = "App2_5_1"
**.host1.AP[21].applicationEntity.iae.dstApName = "App2_5_1"
**.host*.AP[21].applicationEntity.iae.delay = 150us
**.host*.AP[21].applicationEntity.iae.pduDroppingProbability = 0.01
**.host1.AP[21].applicationEntity.iae.rate = 9.090909090909092E-5
**.host1.AP[21].applicationEntity.iae.ratevar = 6.060606060606061E-5
**.host1.AP[22].applicationEntity.iae.startAt = 10s
**.host1.AP[22].applicationEntity.iae.sendAfter = 10s
**.host1.AP[22].apName = "App1_5_2"
**.host2.AP[22].apName = "App2_5_2"
**.host1.AP[22].applicationEntity.iae.dstApName = "App2_5_2"
**.host*.AP[22].applicationEntity.iae.delay = 150us
**.host*.AP[22].applicationEntity.iae.pduDroppingProbability = 0.01
**.host1.AP[22].applicationEntity.iae.rate = 9.090909090909092E-5
**.host1.AP[22].applicationEntity.iae.ratevar = 6.060606060606061E-5
**.host1.AP[23].applicationEntity.iae.startAt = 10s
**.host1.AP[23].applicationEntity.iae.sendAfter = 10s
**.host1.AP[23].apName = "App1_5_3"
**.host2.AP[23].apName = "App2_5_3"
**.host1.AP[23].applicationEntity.iae.dstApName = "App2_5_3"
**.host*.AP[23].applicationEntity.iae.delay = 150us
**.host*.AP[23].applicationEntity.iae.pduDroppingProbability = 0.01
**.host1.AP[23].applicationEntity.iae.rate = 9.090909090909092E-5
**.host1.AP[23].applicationEntity.iae.ratevar = 6.060606060606061E-5
**.host1.AP[24].applicationEntity.iae.startAt = 10s
**.host1.AP[24].applicationEntity.iae.sendAfter = 10s
**.host1.AP[24].apName = "App1_5_4"
**.host2.AP[24].apName = "App2_5_4"
**.host1.AP[24].applicationEntity.iae.dstApName = "App2_5_4"
**.host*.AP[24].applicationEntity.iae.delay = 150us
**.host*.AP[24].applicationEntity.iae.pduDroppingProbability = 0.01
**.host1.AP[24].applicationEntity.iae.rate = 9.090909090909092E-5
**.host1.AP[24].applicationEntity.iae.ratevar = 6.060606060606061E-5
**.host1.AP[25].applicationEntity.iae.startAt = 11s
**.host1.AP[25].applicationEntity.iae.sendAfter = 9s
**.host1.AP[25].apName = "App1_6_0"
**.host2.AP[25].apName = "App2_6_0"
**.host1.AP[25].applicationEntity.iae.dstApName = "App2_6_0"
**.host*.AP[25].applicationEntity.iae.delay = 150us
**.host*.AP[25].applicationEntity.iae.pduDroppingProbability = 0.1
**.host1.AP[25].applicationEntity.iae.rate = 8.333333333333333E-5
**.host1.AP[25].applicationEntity.iae.ratevar = 5.555555555555555E-5
**.host1.AP[26].applicationEntity.iae.startAt = 11s
**.host1.AP[26].applicationEntity.iae.sendAfter = 9s
**.host1.AP[26].apName = "App1_6_1"
**.host2.AP[26].apName = "App2_6_1"
**.host1.AP[26].applicationEntity.iae.dstApName = "App2_6_1"
**.host*.AP[26].applicationEntity.iae.delay = 150us
**.host*.AP[26].applicationEntity.iae.pduDroppingProbability = 0.1
**.host1.AP[26].applicationEntity.iae.rate = 8.333333333333333E-5
**.host1.AP[26].applicationEntity.iae.ratevar = 5.555555555555555E-5
**.host1.AP[27].applicationEntity.iae.startAt = 11s
**.host1.AP[27].applicationEntity.iae.sendAfter = 9s
**.host1.AP[27].apName = "App1_6_2"
**.host2.AP[27].apName = "App2_6_2"
**.host1.AP[27].applicationEntity.iae.dstApName = "App2_6_2"
**.host*.AP[27].applicationEntity.iae.delay = 150us
**.host*.AP[27].applicationEntity.iae.pduDroppingProbability = 0.1
**.host1.AP[27].applicationEntity.iae.rate = 8.333333333333333E-5
**.host1.AP[27].applicationEntity.iae.ratevar = 5.555555555555555E-5
**.host1.AP[28].applicationEntity.iae.startAt = 11s
**.host1.AP[28].applicationEntity.iae.sendAfter = 9s
**.host1.AP[28].apName = "App1_6_3"
**.host2.AP[28].apName = "App2_6_3"
**.host1.AP[28].applicationEntity.iae.dstApName = "App2_6_3"
**.host*.AP[28].applicationEntity.iae.delay = 150us
**.host*.AP[28].applicationEntity.iae.pduDroppingProbability = 0.1
**.host1.AP[28].applicationEntity.iae.rate = 8.333333333333333E-5
**.host1.AP[28].applicationEntity.iae.ratevar = 5.555555555555555E-5
**.host1.AP[29].applicationEntity.iae.startAt = 11s
**.host1.AP[29].applicationEntity.iae.sendAfter = 9s
**.host1.AP[29].apName = "App1_6_4"
**.host2.AP[29].apName = "App2_6_4"
**.host1.AP[29].applicationEntity.iae.dstApName = "App2_6_4"
**.host*.AP[29].applicationEntity.iae.delay = 150us
**.host*.AP[29].applicationEntity.iae.pduDroppingProbability = 0.1
**.host1.AP[29].applicationEntity.iae.rate = 8.333333333333333E-5
**.host1.AP[29].applicationEntity.iae.ratevar = 5.555555555555555E-5
**.host1.AP[30].applicationEntity.iae.startAt = 12s
**.host1.AP[30].applicationEntity.iae.sendAfter = 8s
**.host1.AP[30].apName = "App1_7_0"
**.host2.AP[30].apName = "App2_7_0"
**.host1.AP[30].applicationEntity.iae.dstApName = "App2_7_0"
**.host*.AP[30].applicationEntity.iae.delay = 1500us
**.host*.AP[30].applicationEntity.iae.pduDroppingProbability = 0.001
**.host1.AP[30].applicationEntity.iae.rate = 1.0E-4
**.host1.AP[30].applicationEntity.iae.ratevar = 6.666666666666667E-5
**.host1.AP[31].applicationEntity.iae.startAt = 12s
**.host1.AP[31].applicationEntity.iae.sendAfter = 8s
**.host1.AP[31].apName = "App1_7_1"
**.host2.AP[31].apName = "App2_7_1"
**.host1.AP[31].applicationEntity.iae.dstApName = "App2_7_1"
**.host*.AP[31].applicationEntity.iae.delay = 1500us
**.host*.AP[31].applicationEntity.iae.pduDroppingProbability = 0.001
**.host1.AP[31].applicationEntity.iae.rate = 1.0E-4
**.host1.AP[31].applicationEntity.iae.ratevar = 6.666666666666667E-5
**.host1.AP[32].applicationEntity.iae.startAt = 12s
**.host1.AP[32].applicationEntity.iae.sendAfter = 8s
**.host1.AP[32].apName = "App1_7_2"
**.host2.AP[32].apName = "App2_7_2"
**.host1.AP[32].applicationEntity.iae.dstApName = "App2_7_2"
**.host*.AP[32].applicationEntity.iae.delay = 1500us
**.host*.AP[32].applicationEntity.iae.pduDroppingProbability = 0.001
**.host1.AP[32].applicationEntity.iae.rate = 1.0E-4
**.host1.AP[32].applicationEntity.iae.ratevar = 6.666666666666667E-5
**.host1.AP[33].applicationEntity.iae.startAt = 12s
**.host1.AP[33].applicationEntity.iae.sendAfter = 8s
**.host1.AP[33].apName = "App1_7_3"
**.host2.AP[33].apName = "App2_7_3"
**.host1.AP[33].applicationEntity.iae.dstApName = "App2_7_3"
**.host*.AP[33].applicationEntity.iae.delay = 1500us
**.host*.AP[33].applicationEntity.iae.pduDroppingProbability = 0.001
**.host1.AP[33].applicationEntity.iae.rate = 1.0E-4
**.host1.AP[33].applicationEntity.iae.ratevar = 6.666666666666667E-5
**.host1.AP[34].applicationEntity.iae.startAt = 12s
**.host1.AP[34].applicationEntity.iae.sendAfter = 8s
**.host1.AP[34].apName = "App1_7_4"
**.host2.AP[34].apName = "App2_7_4"
**.host1.AP[34].applicationEntity.iae.dstApName = "App2_7_4"
**.host*.AP[34].applicationEntity.iae.delay = 1500us
**.host*.AP[34].applicationEntity.iae.pduDroppingProbability = 0.001
**.host1.AP[34].applicationEntity.iae.rate = 1.0E-4
**.host1.AP[34].applicationEntity.iae.ratevar = 6.666666666666667E-5
**.host1.AP[35].applicationEntity.iae.startAt = 13s
**.host1.AP[35].applicationEntity.iae.sendAfter = 7s
**.host1.AP[35].apName = "App1_8_0"
**.host2.AP[35].apName = "App2_8_0"
**.host1.AP[35].applicationEntity.iae.dstApName = "App2_8_0"
**.host*.AP[35].applicationEntity.iae.delay = 1500us
**.host*.AP[35].applicationEntity.iae.pduDroppingProbability = 0.01
**.host1.AP[35].applicationEntity.iae.rate = 9.090909090909092E-5
**.host1.AP[35].applicationEntity.iae.ratevar = 6.060606060606061E-5
**.host1.AP[36].applicationEntity.iae.startAt = 13s
**.host1.AP[36].applicationEntity.iae.sendAfter = 7s
**.host1.AP[36].apName = "App1_8_1"
**.host2.AP[36].apName = "App2_8_1"
**.host1.AP[36].applicationEntity.iae.dstApName = "App2_8_1"
**.host*.AP[36].applicationEntity.iae.delay = 1500us
**.host*.AP[36].applicationEntity.iae.pduDroppingProbability = 0.01
**.host1.AP[36].applicationEntity.iae.rate = 9.090909090909092E-5
**.host1.AP[36].applicationEntity.iae.ratevar = 6.060606060606061E-5
**.host1.AP[37].applicationEntity.iae.startAt = 13s
**.host1.AP[37].applicationEntity.iae.sendAfter = 7s
**.host1.AP[37].apName = "App1_8_2"
**.host2.AP[37].apName = "App2_8_2"
**.host1.AP[37].applicationEntity.iae.dstApName = "App2_8_2"
**.host*.AP[37].applicationEntity.iae.delay = 1500us
**.host*.AP[37].applicationEntity.iae.pduDroppingProbability = 0.01
**.host1.AP[37].applicationEntity.iae.rate = 9.090909090909092E-5
**.host1.AP[37].applicationEntity.iae.ratevar = 6.060606060606061E-5
**.host1.AP[38].applicationEntity.iae.startAt = 13s
**.host1.AP[38].applicationEntity.iae.sendAfter = 7s
**.host1.AP[38].apName = "App1_8_3"
**.host2.AP[38].apName = "App2_8_3"
**.host1.AP[38].applicationEntity.iae.dstApName = "App2_8_3"
**.host*.AP[38].applicationEntity.iae.delay = 1500us
**.host*.AP[38].applicationEntity.iae.pduDroppingProbability = 0.01
**.host1.AP[38].applicationEntity.iae.rate = 9.090909090909092E-5
**.host1.AP[38].applicationEntity.iae.ratevar = 6.060606060606061E-5
**.host1.AP[39].applicationEntity.iae.startAt = 13s
**.host1.AP[39].applicationEntity.iae.sendAfter = 7s
**.host1.AP[39].apName = "App1_8_4"
**.host2.AP[39].apName = "App2_8_4"
**.host1.AP[39].applicationEntity.iae.dstApName = "App2_8_4"
**.host*.AP[39].applicationEntity.iae.delay = 1500us
**.host*.AP[39].applicationEntity.iae.pduDroppingProbability = 0.01
**.host1.AP[39].applicationEntity.iae.rate = 9.090909090909092E-5
**.host1.AP[39].applicationEntity.iae.ratevar = 6.060606060606061E-5
**.host1.AP[40].applicationEntity.iae.startAt = 14s
**.host1.AP[40].applicationEntity.iae.sendAfter = 6s
**.host1.AP[40].apName = "App1_9_0"
**.host2.AP[40].apName = "App2_9_0"
**.host1.AP[40].applicationEntity.iae.dstApName = "App2_9_0"
**.host*.AP[40].applicationEntity.iae.delay = 1500us
**.host*.AP[40].applicationEntity.iae.pduDroppingProbability = 0.1
**.host1.AP[40].applicationEntity.iae.rate = 8.333333333333333E-5
**.host1.AP[40].applicationEntity.iae.ratevar = 5.555555555555555E-5
**.host1.AP[41].applicationEntity.iae.startAt = 14s
**.host1.AP[41].applicationEntity.iae.sendAfter = 6s
**.host1.AP[41].apName = "App1_9_1"
**.host2.AP[41].apName = "App2_9_1"
**.host1.AP[41].applicationEntity.iae.dstApName = "App2_9_1"
**.host*.AP[41].applicationEntity.iae.delay = 1500us
**.host*.AP[41].applicationEntity.iae.pduDroppingProbability = 0.1
**.host1.AP[41].applicationEntity.iae.rate = 8.333333333333333E-5
**.host1.AP[41].applicationEntity.iae.ratevar = 5.555555555555555E-5
**.host1.AP[42].applicationEntity.iae.startAt = 14s
**.host1.AP[42].applicationEntity.iae.sendAfter = 6s
**.host1.AP[42].apName = "App1_9_2"
**.host2.AP[42].apName = "App2_9_2"
**.host1.AP[42].applicationEntity.iae.dstApName = "App2_9_2"
**.host*.AP[42].applicationEntity.iae.delay = 1500us
**.host*.AP[42].applicationEntity.iae.pduDroppingProbability = 0.1
**.host1.AP[42].applicationEntity.iae.rate = 8.333333333333333E-5
**.host1.AP[42].applicationEntity.iae.ratevar = 5.555555555555555E-5
**.host1.AP[43].applicationEntity.iae.startAt = 14s
**.host1.AP[43].applicationEntity.iae.sendAfter = 6s
**.host1.AP[43].apName = "App1_9_3"
**.host2.AP[43].apName = "App2_9_3"
**.host1.AP[43].applicationEntity.iae.dstApName = "App2_9_3"
**.host*.AP[43].applicationEntity.iae.delay = 1500us
**.host*.AP[43].applicationEntity.iae.pduDroppingProbability = 0.1
**.host1.AP[43].applicationEntity.iae.rate = 8.333333333333333E-5
**.host1.AP[43].applicationEntity.iae.ratevar = 5.555555555555555E-5
**.host1.AP[44].applicationEntity.iae.startAt = 14s
**.host1.AP[44].applicationEntity.iae.sendAfter = 6s
**.host1.AP[44].apName = "App1_9_4"
**.host2.AP[44].apName = "App2_9_4"
**.host1.AP[44].applicationEntity.iae.dstApName = "App2_9_4"
**.host*.AP[44].applicationEntity.iae.delay = 1500us
**.host*.AP[44].applicationEntity.iae.pduDroppingProbability = 0.1
**.host1.AP[44].applicationEntity.iae.rate = 8.333333333333333E-5
**.host1.AP[44].applicationEntity.iae.ratevar = 5.555555555555555E-5
**.host1.AP[1].applicationEntity.iae.printAtEnd = true
**.host1.AP[*].applicationEntity.iae.recTimes = false

[Config OneQueue]
**.defaultThreshQLength = 100
**.defaultMaxQLength =  100

[Config BE]

**.host*.ipcProcess0.**.queueAllocPolicyName = "QueuePerNQoS"
**.host*.ipcProcess0.**.queueIdGenName = "IDPerNQoS"
**.router.relayIpc.**.queueAllocPolicyName = "QueuePerNQoS"
**.router.relayIpc.**.queueIdGenName = "IDPerNQoS"

**.host*.ipcProcess0.relayAndMux.qMonitorPolicyName = "BEMonitor"
**.router.relayIpc.relayAndMux.qMonitorPolicyName = "BEMonitor"

**.host*.ipcProcess0.relayAndMux.schedPolicyName = "DumbSch"
**.router.relayIpc.relayAndMux.schedPolicyName = "DumbSch"

**.host*.ipcProcess0.relayAndMux.maxQPolicyName = "DumbMaxQ"
**.router.relayIpc.relayAndMux.maxQPolicyName = "DumbMaxQ"

**.defaultThreshQLength = 0
**.defaultMaxQLength =  100

[Config DL]

**.host*.ipcProcess0.**.queueAllocPolicyName = "QueuePerNCU"
**.host*.ipcProcess0.**.queueIdGenName = "IDPerNCU"
**.router.relayIpc.**.queueAllocPolicyName = "QueuePerNCU"
**.router.relayIpc.**.queueIdGenName = "IDPerNCU"


**.qos2cuData = xmldoc("CU.xml", "Configuration/qos2cu")
**.cuData = xmldoc("CU.xml", "Configuration/CU")

**.host*.ipcProcess0.relayAndMux.qMonitorPolicyName = "DLMonitor"
**.router.relayIpc.relayAndMux.qMonitorPolicyName = "DLMonitor"

**.host*.ipcProcess0.relayAndMux.schedPolicyName = "DumbSch"
**.router.relayIpc.relayAndMux.schedPolicyName = "DumbSch"

**.host*.ipcProcess0.relayAndMux.maxQPolicyName = "DumbMaxQ"
**.router.relayIpc.relayAndMux.maxQPolicyName = "DumbMaxQ"

**.defaultThreshQLength = 0
**.defaultMaxQLength =  100

[Config eDL]

**.host*.ipcProcess0.**.queueAllocPolicyName = "QueuePerNCU"
**.host*.ipcProcess0.**.queueIdGenName = "IDPerNCU"
**.router.relayIpc.**.queueAllocPolicyName = "QueuePerNCU"
**.router.relayIpc.**.queueIdGenName = "IDPerNCU"


**.qos2cuData = xmldoc("eCU.xml", "Configuration/qos2cu")
**.cuData = xmldoc("eCU.xml", "Configuration/CU")
**.urgData = xmldoc("eCU.xml", "Configuration/urgencySkip")

**.host*.ipcProcess0.relayAndMux.qMonitorPolicyName = "eDLMonitor"
**.router.relayIpc.relayAndMux.qMonitorPolicyName = "eDLMonitor"

**.host*.ipcProcess0.relayAndMux.schedPolicyName = "DumbSch"
**.router.relayIpc.relayAndMux.schedPolicyName = "DumbSch"

**.host*.ipcProcess0.relayAndMux.maxQPolicyName = "DumbMaxQ"
**.router.relayIpc.relayAndMux.maxQPolicyName = "DumbMaxQ"

**.defaultThreshQLength = 0
**.defaultMaxQLength =  100

[Config DQ]

**.host*.ipcProcess0.**.queueAllocPolicyName = "QueuePerNCU"
**.host*.ipcProcess0.**.queueIdGenName = "IDPerNCU"
**.router.relayIpc.**.queueAllocPolicyName = "QueuePerNCU"
**.router.relayIpc.**.queueIdGenName = "IDPerNCU"


**.qos2cuData = xmldoc("DQ.xml", "Configuration/qos2cu")
**.cuData = xmldoc("DQ.xml", "Configuration/CU")

**.host*.ipcProcess0.relayAndMux.qMonitorPolicyName = "DQMonitor"
**.router.relayIpc.relayAndMux.qMonitorPolicyName = "DQMonitor"

**.host*.ipcProcess0.relayAndMux.schedPolicyName = "DQSch"
**.router.relayIpc.relayAndMux.schedPolicyName = "DQSch"

**.host*.ipcProcess0.relayAndMux.maxQPolicyName = "DumbMaxQ"
**.router.relayIpc.relayAndMux.maxQPolicyName = "DumbMaxQ"

**.defaultThreshQLength = 0
**.defaultMaxQLength =  100
