[General]
network = treeBipart

sim-time-limit =  5min

**.N*.relayIpc.difName = "DC"
**.S*.ipcProcess1.difName = "DC"
**.N0.relayIpc.ipcAddress = "0"
**.N0_0.relayIpc.ipcAddress = "0.0"
**.N0_0_0.relayIpc.ipcAddress = "0.0.0"
**.S0_0_0.ipcProcess1.ipcAddress = "0.0.0.s"
**.N0_0_1.relayIpc.ipcAddress = "0.0.1"
**.S0_0_1.ipcProcess1.ipcAddress = "0.0.1.s"
**.N0_0_2.relayIpc.ipcAddress = "0.0.2"
**.S0_0_2.ipcProcess1.ipcAddress = "0.0.2.s"
**.N0_1.relayIpc.ipcAddress = "0.1"
**.N0_1_0.relayIpc.ipcAddress = "0.1.0"
**.S0_1_0.ipcProcess1.ipcAddress = "0.1.0.s"
**.N0_1_1.relayIpc.ipcAddress = "0.1.1"
**.S0_1_1.ipcProcess1.ipcAddress = "0.1.1.s"
**.N0_1_2.relayIpc.ipcAddress = "0.1.2"
**.S0_1_2.ipcProcess1.ipcAddress = "0.1.2.s"
**.N0_2.relayIpc.ipcAddress = "0.2"
**.N0_2_0.relayIpc.ipcAddress = "0.2.0"
**.S0_2_0.ipcProcess1.ipcAddress = "0.2.0.s"
**.N0_2_1.relayIpc.ipcAddress = "0.2.1"
**.S0_2_1.ipcProcess1.ipcAddress = "0.2.1.s"
**.N0_2_2.relayIpc.ipcAddress = "0.2.2"
**.S0_2_2.ipcProcess1.ipcAddress = "0.2.2.s"
**.N1.relayIpc.ipcAddress = "1"
**.N1_0.relayIpc.ipcAddress = "1.0"
**.N1_0_0.relayIpc.ipcAddress = "1.0.0"
**.S1_0_0.ipcProcess1.ipcAddress = "1.0.0.s"
**.N1_0_1.relayIpc.ipcAddress = "1.0.1"
**.S1_0_1.ipcProcess1.ipcAddress = "1.0.1.s"
**.N1_0_2.relayIpc.ipcAddress = "1.0.2"
**.S1_0_2.ipcProcess1.ipcAddress = "1.0.2.s"
**.N1_1.relayIpc.ipcAddress = "1.1"
**.N1_1_0.relayIpc.ipcAddress = "1.1.0"
**.S1_1_0.ipcProcess1.ipcAddress = "1.1.0.s"
**.N1_1_1.relayIpc.ipcAddress = "1.1.1"
**.S1_1_1.ipcProcess1.ipcAddress = "1.1.1.s"
**.N1_1_2.relayIpc.ipcAddress = "1.1.2"
**.S1_1_2.ipcProcess1.ipcAddress = "1.1.2.s"
**.N1_2.relayIpc.ipcAddress = "1.2"
**.N1_2_0.relayIpc.ipcAddress = "1.2.0"
**.S1_2_0.ipcProcess1.ipcAddress = "1.2.0.s"
**.N1_2_1.relayIpc.ipcAddress = "1.2.1"
**.S1_2_1.ipcProcess1.ipcAddress = "1.2.1.s"
**.N1_2_2.relayIpc.ipcAddress = "1.2.2"
**.S1_2_2.ipcProcess1.ipcAddress = "1.2.2.s"

**.N0.ipcProcess[0].difName = "S"
**.N0.ipcProcess[0].ipcAddress = "A"
**.N0.ipcProcess[1].difName = "S0_0"
**.N0.ipcProcess[1].ipcAddress = "A"
**.N0_0.ipcProcess[0].difName = "S0_0"
**.N0_0.ipcProcess[0].ipcAddress = "B"
**.N0_0.ipcProcess[1].difName = "S1_0"
**.N0_0.ipcProcess[1].ipcAddress = "A"
**.N0_0_0.ipcProcess[0].difName = "S1_0"
**.N0_0_0.ipcProcess[0].ipcAddress = "B"
**.N0_0_0.ipcProcess[1].difName = "S2_app"
**.N0_0_0.ipcProcess[1].ipcAddress = "A"
**.S0_0_0.ipcProcess0.difName = "S2_app"
**.S0_0_0.ipcProcess0.ipcAddress = "B"
**.N0_0.ipcProcess[2].difName = "S1_1"
**.N0_0.ipcProcess[2].ipcAddress = "A"
**.N0_0_1.ipcProcess[0].difName = "S1_1"
**.N0_0_1.ipcProcess[0].ipcAddress = "B"
**.N0_0_1.ipcProcess[1].difName = "S2_app"
**.N0_0_1.ipcProcess[1].ipcAddress = "A"
**.S0_0_1.ipcProcess0.difName = "S2_app"
**.S0_0_1.ipcProcess0.ipcAddress = "B"
**.N0_0.ipcProcess[3].difName = "S1_2"
**.N0_0.ipcProcess[3].ipcAddress = "A"
**.N0_0_2.ipcProcess[0].difName = "S1_2"
**.N0_0_2.ipcProcess[0].ipcAddress = "B"
**.N0_0_2.ipcProcess[1].difName = "S2_app"
**.N0_0_2.ipcProcess[1].ipcAddress = "A"
**.S0_0_2.ipcProcess0.difName = "S2_app"
**.S0_0_2.ipcProcess0.ipcAddress = "B"
**.N0.ipcProcess[2].difName = "S0_1"
**.N0.ipcProcess[2].ipcAddress = "A"
**.N0_1.ipcProcess[0].difName = "S0_1"
**.N0_1.ipcProcess[0].ipcAddress = "B"
**.N0_1.ipcProcess[1].difName = "S1_0"
**.N0_1.ipcProcess[1].ipcAddress = "A"
**.N0_1_0.ipcProcess[0].difName = "S1_0"
**.N0_1_0.ipcProcess[0].ipcAddress = "B"
**.N0_1_0.ipcProcess[1].difName = "S2_app"
**.N0_1_0.ipcProcess[1].ipcAddress = "A"
**.S0_1_0.ipcProcess0.difName = "S2_app"
**.S0_1_0.ipcProcess0.ipcAddress = "B"
**.N0_1.ipcProcess[2].difName = "S1_1"
**.N0_1.ipcProcess[2].ipcAddress = "A"
**.N0_1_1.ipcProcess[0].difName = "S1_1"
**.N0_1_1.ipcProcess[0].ipcAddress = "B"
**.N0_1_1.ipcProcess[1].difName = "S2_app"
**.N0_1_1.ipcProcess[1].ipcAddress = "A"
**.S0_1_1.ipcProcess0.difName = "S2_app"
**.S0_1_1.ipcProcess0.ipcAddress = "B"
**.N0_1.ipcProcess[3].difName = "S1_2"
**.N0_1.ipcProcess[3].ipcAddress = "A"
**.N0_1_2.ipcProcess[0].difName = "S1_2"
**.N0_1_2.ipcProcess[0].ipcAddress = "B"
**.N0_1_2.ipcProcess[1].difName = "S2_app"
**.N0_1_2.ipcProcess[1].ipcAddress = "A"
**.S0_1_2.ipcProcess0.difName = "S2_app"
**.S0_1_2.ipcProcess0.ipcAddress = "B"
**.N0.ipcProcess[3].difName = "S0_2"
**.N0.ipcProcess[3].ipcAddress = "A"
**.N0_2.ipcProcess[0].difName = "S0_2"
**.N0_2.ipcProcess[0].ipcAddress = "B"
**.N0_2.ipcProcess[1].difName = "S1_0"
**.N0_2.ipcProcess[1].ipcAddress = "A"
**.N0_2_0.ipcProcess[0].difName = "S1_0"
**.N0_2_0.ipcProcess[0].ipcAddress = "B"
**.N0_2_0.ipcProcess[1].difName = "S2_app"
**.N0_2_0.ipcProcess[1].ipcAddress = "A"
**.S0_2_0.ipcProcess0.difName = "S2_app"
**.S0_2_0.ipcProcess0.ipcAddress = "B"
**.N0_2.ipcProcess[2].difName = "S1_1"
**.N0_2.ipcProcess[2].ipcAddress = "A"
**.N0_2_1.ipcProcess[0].difName = "S1_1"
**.N0_2_1.ipcProcess[0].ipcAddress = "B"
**.N0_2_1.ipcProcess[1].difName = "S2_app"
**.N0_2_1.ipcProcess[1].ipcAddress = "A"
**.S0_2_1.ipcProcess0.difName = "S2_app"
**.S0_2_1.ipcProcess0.ipcAddress = "B"
**.N0_2.ipcProcess[3].difName = "S1_2"
**.N0_2.ipcProcess[3].ipcAddress = "A"
**.N0_2_2.ipcProcess[0].difName = "S1_2"
**.N0_2_2.ipcProcess[0].ipcAddress = "B"
**.N0_2_2.ipcProcess[1].difName = "S2_app"
**.N0_2_2.ipcProcess[1].ipcAddress = "A"
**.S0_2_2.ipcProcess0.difName = "S2_app"
**.S0_2_2.ipcProcess0.ipcAddress = "B"
**.N1.ipcProcess[0].difName = "S"
**.N1.ipcProcess[0].ipcAddress = "B"
**.N1.ipcProcess[1].difName = "S0_0"
**.N1.ipcProcess[1].ipcAddress = "A"
**.N1_0.ipcProcess[0].difName = "S0_0"
**.N1_0.ipcProcess[0].ipcAddress = "B"
**.N1_0.ipcProcess[1].difName = "S1_0"
**.N1_0.ipcProcess[1].ipcAddress = "A"
**.N1_0_0.ipcProcess[0].difName = "S1_0"
**.N1_0_0.ipcProcess[0].ipcAddress = "B"
**.N1_0_0.ipcProcess[1].difName = "S2_app"
**.N1_0_0.ipcProcess[1].ipcAddress = "A"
**.S1_0_0.ipcProcess0.difName = "S2_app"
**.S1_0_0.ipcProcess0.ipcAddress = "B"
**.N1_0.ipcProcess[2].difName = "S1_1"
**.N1_0.ipcProcess[2].ipcAddress = "A"
**.N1_0_1.ipcProcess[0].difName = "S1_1"
**.N1_0_1.ipcProcess[0].ipcAddress = "B"
**.N1_0_1.ipcProcess[1].difName = "S2_app"
**.N1_0_1.ipcProcess[1].ipcAddress = "A"
**.S1_0_1.ipcProcess0.difName = "S2_app"
**.S1_0_1.ipcProcess0.ipcAddress = "B"
**.N1_0.ipcProcess[3].difName = "S1_2"
**.N1_0.ipcProcess[3].ipcAddress = "A"
**.N1_0_2.ipcProcess[0].difName = "S1_2"
**.N1_0_2.ipcProcess[0].ipcAddress = "B"
**.N1_0_2.ipcProcess[1].difName = "S2_app"
**.N1_0_2.ipcProcess[1].ipcAddress = "A"
**.S1_0_2.ipcProcess0.difName = "S2_app"
**.S1_0_2.ipcProcess0.ipcAddress = "B"
**.N1.ipcProcess[2].difName = "S0_1"
**.N1.ipcProcess[2].ipcAddress = "A"
**.N1_1.ipcProcess[0].difName = "S0_1"
**.N1_1.ipcProcess[0].ipcAddress = "B"
**.N1_1.ipcProcess[1].difName = "S1_0"
**.N1_1.ipcProcess[1].ipcAddress = "A"
**.N1_1_0.ipcProcess[0].difName = "S1_0"
**.N1_1_0.ipcProcess[0].ipcAddress = "B"
**.N1_1_0.ipcProcess[1].difName = "S2_app"
**.N1_1_0.ipcProcess[1].ipcAddress = "A"
**.S1_1_0.ipcProcess0.difName = "S2_app"
**.S1_1_0.ipcProcess0.ipcAddress = "B"
**.N1_1.ipcProcess[2].difName = "S1_1"
**.N1_1.ipcProcess[2].ipcAddress = "A"
**.N1_1_1.ipcProcess[0].difName = "S1_1"
**.N1_1_1.ipcProcess[0].ipcAddress = "B"
**.N1_1_1.ipcProcess[1].difName = "S2_app"
**.N1_1_1.ipcProcess[1].ipcAddress = "A"
**.S1_1_1.ipcProcess0.difName = "S2_app"
**.S1_1_1.ipcProcess0.ipcAddress = "B"
**.N1_1.ipcProcess[3].difName = "S1_2"
**.N1_1.ipcProcess[3].ipcAddress = "A"
**.N1_1_2.ipcProcess[0].difName = "S1_2"
**.N1_1_2.ipcProcess[0].ipcAddress = "B"
**.N1_1_2.ipcProcess[1].difName = "S2_app"
**.N1_1_2.ipcProcess[1].ipcAddress = "A"
**.S1_1_2.ipcProcess0.difName = "S2_app"
**.S1_1_2.ipcProcess0.ipcAddress = "B"
**.N1.ipcProcess[3].difName = "S0_2"
**.N1.ipcProcess[3].ipcAddress = "A"
**.N1_2.ipcProcess[0].difName = "S0_2"
**.N1_2.ipcProcess[0].ipcAddress = "B"
**.N1_2.ipcProcess[1].difName = "S1_0"
**.N1_2.ipcProcess[1].ipcAddress = "A"
**.N1_2_0.ipcProcess[0].difName = "S1_0"
**.N1_2_0.ipcProcess[0].ipcAddress = "B"
**.N1_2_0.ipcProcess[1].difName = "S2_app"
**.N1_2_0.ipcProcess[1].ipcAddress = "A"
**.S1_2_0.ipcProcess0.difName = "S2_app"
**.S1_2_0.ipcProcess0.ipcAddress = "B"
**.N1_2.ipcProcess[2].difName = "S1_1"
**.N1_2.ipcProcess[2].ipcAddress = "A"
**.N1_2_1.ipcProcess[0].difName = "S1_1"
**.N1_2_1.ipcProcess[0].ipcAddress = "B"
**.N1_2_1.ipcProcess[1].difName = "S2_app"
**.N1_2_1.ipcProcess[1].ipcAddress = "A"
**.S1_2_1.ipcProcess0.difName = "S2_app"
**.S1_2_1.ipcProcess0.ipcAddress = "B"
**.N1_2.ipcProcess[3].difName = "S1_2"
**.N1_2.ipcProcess[3].ipcAddress = "A"
**.N1_2_2.ipcProcess[0].difName = "S1_2"
**.N1_2_2.ipcProcess[0].ipcAddress = "B"
**.N1_2_2.ipcProcess[1].difName = "S2_app"
**.N1_2_2.ipcProcess[1].ipcAddress = "A"
**.S1_2_2.ipcProcess0.difName = "S2_app"
**.S1_2_2.ipcProcess0.ipcAddress = "B"

**.N*.relayIpc.resourceAllocator.pduftgPolicyName = "PrefDistanceVectorPolicy"
**.N*.relayIpc.resourceAllocator.pduftType = "PrefixPDUForwardingTable"
**.N*.relayIpc.resourceAllocator.PDUFTGPolicy.showAtEnd = true
**.N*.relayIpc.resourceAllocator.PDUFTGPolicy.netStateVisible = true
**.N*.relayIpc.resourceAllocator.PDUFTGPolicy.netStateMod = "^.^.^"
**.S*.ipcProcess1.resourceAllocator.pduftgPolicyName = "PrefDistanceVectorPolicy"
**.S*.ipcProcess1.resourceAllocator.pduftType = "PrefixPDUForwardingTable"
**.S*.ipcProcess1.resourceAllocator.PDUFTGPolicy.showAtEnd = true
**.S*.ipcProcess1.resourceAllocator.PDUFTGPolicy.netStateVisible = true
**.S*.ipcProcess1.resourceAllocator.PDUFTGPolicy.netStateMod = "^.^.^"

**.difAllocator.configData = xmldoc("config.xml", "Configuration/DA")
**.difAllocator.directory.configData = xmldoc("config.xml", "Configuration/DA")
**.ra.qoscubesData = xmldoc("config.xml", "Configuration/QoSCubesSet")

**.N0.relayIpc.resourceAllocator.ra.flows = xmldoc("config.xml", "Configuration/Node[@id='N0']/IPC[@id='relayIpc']/RA/Flows")
**.N1.relayIpc.resourceAllocator.ra.flows = xmldoc("config.xml", "Configuration/Node[@id='N1']/IPC[@id='relayIpc']/RA/Flows")
**.N0_0.relayIpc.resourceAllocator.ra.flows = xmldoc("config.xml", "Configuration/Node[@id='N0_0']/IPC[@id='relayIpc']/RA/Flows")
**.N0_0_0.relayIpc.resourceAllocator.ra.flows = xmldoc("config.xml", "Configuration/Node[@id='N0_0_0']/IPC[@id='relayIpc']/RA/Flows")
**.S0_0_0.ipcProcess1.resourceAllocator.ra.flows = xmldoc("config.xml", "Configuration/Node[@id='S0_0_0']/IPC[@id='ipcProcess1']/RA/Flows")
**.N0_0_1.relayIpc.resourceAllocator.ra.flows = xmldoc("config.xml", "Configuration/Node[@id='N0_0_1']/IPC[@id='relayIpc']/RA/Flows")
**.S0_0_1.ipcProcess1.resourceAllocator.ra.flows = xmldoc("config.xml", "Configuration/Node[@id='S0_0_1']/IPC[@id='ipcProcess1']/RA/Flows")
**.N0_0_2.relayIpc.resourceAllocator.ra.flows = xmldoc("config.xml", "Configuration/Node[@id='N0_0_2']/IPC[@id='relayIpc']/RA/Flows")
**.S0_0_2.ipcProcess1.resourceAllocator.ra.flows = xmldoc("config.xml", "Configuration/Node[@id='S0_0_2']/IPC[@id='ipcProcess1']/RA/Flows")
**.N0_1.relayIpc.resourceAllocator.ra.flows = xmldoc("config.xml", "Configuration/Node[@id='N0_1']/IPC[@id='relayIpc']/RA/Flows")
**.N0_1_0.relayIpc.resourceAllocator.ra.flows = xmldoc("config.xml", "Configuration/Node[@id='N0_1_0']/IPC[@id='relayIpc']/RA/Flows")
**.S0_1_0.ipcProcess1.resourceAllocator.ra.flows = xmldoc("config.xml", "Configuration/Node[@id='S0_1_0']/IPC[@id='ipcProcess1']/RA/Flows")
**.N0_1_1.relayIpc.resourceAllocator.ra.flows = xmldoc("config.xml", "Configuration/Node[@id='N0_1_1']/IPC[@id='relayIpc']/RA/Flows")
**.S0_1_1.ipcProcess1.resourceAllocator.ra.flows = xmldoc("config.xml", "Configuration/Node[@id='S0_1_1']/IPC[@id='ipcProcess1']/RA/Flows")
**.N0_1_2.relayIpc.resourceAllocator.ra.flows = xmldoc("config.xml", "Configuration/Node[@id='N0_1_2']/IPC[@id='relayIpc']/RA/Flows")
**.S0_1_2.ipcProcess1.resourceAllocator.ra.flows = xmldoc("config.xml", "Configuration/Node[@id='S0_1_2']/IPC[@id='ipcProcess1']/RA/Flows")
**.N0_2.relayIpc.resourceAllocator.ra.flows = xmldoc("config.xml", "Configuration/Node[@id='N0_2']/IPC[@id='relayIpc']/RA/Flows")
**.N0_2_0.relayIpc.resourceAllocator.ra.flows = xmldoc("config.xml", "Configuration/Node[@id='N0_2_0']/IPC[@id='relayIpc']/RA/Flows")
**.S0_2_0.ipcProcess1.resourceAllocator.ra.flows = xmldoc("config.xml", "Configuration/Node[@id='S0_2_0']/IPC[@id='ipcProcess1']/RA/Flows")
**.N0_2_1.relayIpc.resourceAllocator.ra.flows = xmldoc("config.xml", "Configuration/Node[@id='N0_2_1']/IPC[@id='relayIpc']/RA/Flows")
**.S0_2_1.ipcProcess1.resourceAllocator.ra.flows = xmldoc("config.xml", "Configuration/Node[@id='S0_2_1']/IPC[@id='ipcProcess1']/RA/Flows")
**.N0_2_2.relayIpc.resourceAllocator.ra.flows = xmldoc("config.xml", "Configuration/Node[@id='N0_2_2']/IPC[@id='relayIpc']/RA/Flows")
**.S0_2_2.ipcProcess1.resourceAllocator.ra.flows = xmldoc("config.xml", "Configuration/Node[@id='S0_2_2']/IPC[@id='ipcProcess1']/RA/Flows")
**.N1_0.relayIpc.resourceAllocator.ra.flows = xmldoc("config.xml", "Configuration/Node[@id='N1_0']/IPC[@id='relayIpc']/RA/Flows")
**.N1_0_0.relayIpc.resourceAllocator.ra.flows = xmldoc("config.xml", "Configuration/Node[@id='N1_0_0']/IPC[@id='relayIpc']/RA/Flows")
**.S1_0_0.ipcProcess1.resourceAllocator.ra.flows = xmldoc("config.xml", "Configuration/Node[@id='S1_0_0']/IPC[@id='ipcProcess1']/RA/Flows")
**.N1_0_1.relayIpc.resourceAllocator.ra.flows = xmldoc("config.xml", "Configuration/Node[@id='N1_0_1']/IPC[@id='relayIpc']/RA/Flows")
**.S1_0_1.ipcProcess1.resourceAllocator.ra.flows = xmldoc("config.xml", "Configuration/Node[@id='S1_0_1']/IPC[@id='ipcProcess1']/RA/Flows")
**.N1_0_2.relayIpc.resourceAllocator.ra.flows = xmldoc("config.xml", "Configuration/Node[@id='N1_0_2']/IPC[@id='relayIpc']/RA/Flows")
**.S1_0_2.ipcProcess1.resourceAllocator.ra.flows = xmldoc("config.xml", "Configuration/Node[@id='S1_0_2']/IPC[@id='ipcProcess1']/RA/Flows")
**.N1_1.relayIpc.resourceAllocator.ra.flows = xmldoc("config.xml", "Configuration/Node[@id='N1_1']/IPC[@id='relayIpc']/RA/Flows")
**.N1_1_0.relayIpc.resourceAllocator.ra.flows = xmldoc("config.xml", "Configuration/Node[@id='N1_1_0']/IPC[@id='relayIpc']/RA/Flows")
**.S1_1_0.ipcProcess1.resourceAllocator.ra.flows = xmldoc("config.xml", "Configuration/Node[@id='S1_1_0']/IPC[@id='ipcProcess1']/RA/Flows")
**.N1_1_1.relayIpc.resourceAllocator.ra.flows = xmldoc("config.xml", "Configuration/Node[@id='N1_1_1']/IPC[@id='relayIpc']/RA/Flows")
**.S1_1_1.ipcProcess1.resourceAllocator.ra.flows = xmldoc("config.xml", "Configuration/Node[@id='S1_1_1']/IPC[@id='ipcProcess1']/RA/Flows")
**.N1_1_2.relayIpc.resourceAllocator.ra.flows = xmldoc("config.xml", "Configuration/Node[@id='N1_1_2']/IPC[@id='relayIpc']/RA/Flows")
**.S1_1_2.ipcProcess1.resourceAllocator.ra.flows = xmldoc("config.xml", "Configuration/Node[@id='S1_1_2']/IPC[@id='ipcProcess1']/RA/Flows")
**.N1_2.relayIpc.resourceAllocator.ra.flows = xmldoc("config.xml", "Configuration/Node[@id='N1_2']/IPC[@id='relayIpc']/RA/Flows")
**.N1_2_0.relayIpc.resourceAllocator.ra.flows = xmldoc("config.xml", "Configuration/Node[@id='N1_2_0']/IPC[@id='relayIpc']/RA/Flows")
**.S1_2_0.ipcProcess1.resourceAllocator.ra.flows = xmldoc("config.xml", "Configuration/Node[@id='S1_2_0']/IPC[@id='ipcProcess1']/RA/Flows")
**.N1_2_1.relayIpc.resourceAllocator.ra.flows = xmldoc("config.xml", "Configuration/Node[@id='N1_2_1']/IPC[@id='relayIpc']/RA/Flows")
**.S1_2_1.ipcProcess1.resourceAllocator.ra.flows = xmldoc("config.xml", "Configuration/Node[@id='S1_2_1']/IPC[@id='ipcProcess1']/RA/Flows")
**.N1_2_2.relayIpc.resourceAllocator.ra.flows = xmldoc("config.xml", "Configuration/Node[@id='N1_2_2']/IPC[@id='relayIpc']/RA/Flows")
**.S1_2_2.ipcProcess1.resourceAllocator.ra.flows = xmldoc("config.xml", "Configuration/Node[@id='S1_2_2']/IPC[@id='ipcProcess1']/RA/Flows")
