[General]
network = GDC
**.pduTracing = false
**.scalar-recording = false
**.vector-recording = false

sim-time-limit = 10min 

seed-set = ${runnumber}

#DIF Allocator settings
**.difAllocator.directory.configData = xmldoc("directory.xml", "DA")

#Shim-Flows allocation
**.ra.preallocation = xmldoc("connectionset.xml", "ConnectionSet")
**.flowAllocator.newFlowReqPolicyType = "MinComparer"
**.isSelfEnrolled = true

##---Backbone---

#QoS settings
**.relayIpc.**.ra.qoscubesData = xmldoc("qoscube.xml", "QoSCubesSet")
**.relayIpc.**.ra.qosReqData = xmldoc("qosreq.xml", "QoSReqSet")

**.ipcProcess[*].**.ra.qoscubesData = xmldoc("qoscube.xml", "QoSCubesSet")
**.ipcProcess[*].**.ra.qosReqData = xmldoc("qosreq.xml", "QoSReqSet")


#DC DIF
**.relayIpc.difName = "DC"

# 0.0 -> Any
**.S_0.relayIpc.ipcAddress = "0.1"
**.S_1.relayIpc.ipcAddress = "0.2"
**.S_2.relayIpc.ipcAddress = "0.3"
**.S_3.relayIpc.ipcAddress = "0.4"
**.S_4.relayIpc.ipcAddress = "0.5"
**.S_5.relayIpc.ipcAddress = "0.6"
**.S_6.relayIpc.ipcAddress = "0.7"
**.S_7.relayIpc.ipcAddress = "0.8"
**.S_8.relayIpc.ipcAddress = "0.9"
**.S_9.relayIpc.ipcAddress = "0.10"

# 1.0 -> Pod 1
**.F_0_0.relayIpc.ipcAddress = "1.1"
**.F_0_1.relayIpc.ipcAddress = "1.2"
**.F_0_2.relayIpc.ipcAddress = "1.3"
# ----------------------------------
**.T_0_0.relayIpc.ipcAddress = "1.4"
**.T_0_1.relayIpc.ipcAddress = "1.5"
**.T_0_2.relayIpc.ipcAddress = "1.6"
**.T_0_3.relayIpc.ipcAddress = "1.7"

# 2.0 -> Pod 2
**.F_1_0.relayIpc.ipcAddress = "2.1"
**.F_1_1.relayIpc.ipcAddress = "2.2"
**.F_1_2.relayIpc.ipcAddress = "2.3"
# ----------------------------------
**.T_1_0.relayIpc.ipcAddress = "2.4"
**.T_1_1.relayIpc.ipcAddress = "2.5"
**.T_1_2.relayIpc.ipcAddress = "2.6"
**.T_1_3.relayIpc.ipcAddress = "2.7"

# 3.0 -> Pod 3
**.F_2_0.relayIpc.ipcAddress = "3.1"
**.F_2_1.relayIpc.ipcAddress = "3.2"
**.F_2_2.relayIpc.ipcAddress = "3.3"
# ----------------------------------
**.T_2_0.relayIpc.ipcAddress = "3.4"
**.T_2_1.relayIpc.ipcAddress = "3.5"
**.T_2_2.relayIpc.ipcAddress = "3.6"
**.T_2_3.relayIpc.ipcAddress = "3.7"

# 4.0 -> Pod 4
**.F_3_0.relayIpc.ipcAddress = "4.1"
**.F_3_1.relayIpc.ipcAddress = "4.2"
**.F_3_2.relayIpc.ipcAddress = "4.3"
# ----------------------------------
**.T_3_0.relayIpc.ipcAddress = "4.4"
**.T_3_1.relayIpc.ipcAddress = "4.5"
**.T_3_2.relayIpc.ipcAddress = "4.6"
**.T_3_3.relayIpc.ipcAddress = "4.7"

# 5.0 -> EdgeSet 1
**.O_0_0.relayIpc.ipcAddress = "5.1"
**.O_0_1.relayIpc.ipcAddress = "5.2"
**.O_0_2.relayIpc.ipcAddress = "5.3"
# ----------------------------------
**.E_0_0.relayIpc.ipcAddress = "5.4"
**.E_0_1.relayIpc.ipcAddress = "5.5"
**.E_0_2.relayIpc.ipcAddress = "5.6"

# 6.0 -> EdgeSet 2
**.O_1_0.relayIpc.ipcAddress = "6.1"
**.O_1_1.relayIpc.ipcAddress = "6.2"
**.O_1_2.relayIpc.ipcAddress = "6.3"
# ----------------------------------
**.E_1_0.relayIpc.ipcAddress = "6.4"
**.E_1_1.relayIpc.ipcAddress = "6.5"
**.E_1_2.relayIpc.ipcAddress = "6.6"



#shim DIF

**.T_**.ipcProcess[*].ipcAddress = "0"
**.F_**.ipcProcess[*].ipcAddress = "1"
**.S_**.ipcProcess[*].ipcAddress = "2"
**.E_**.ipcProcess[*].ipcAddress = "0"
**.O_**.ipcProcess[*].ipcAddress = "1"

**.T_0_0.ipcProcess[0].difName = "tf0.0.0"
**.T_0_0.ipcProcess[1].difName = "tf0.0.1"
**.T_0_0.ipcProcess[2].difName = "tf0.0.2"
**.T_0_1.ipcProcess[0].difName = "tf0.1.0"
**.T_0_1.ipcProcess[1].difName = "tf0.1.1"
**.T_0_1.ipcProcess[2].difName = "tf0.1.2"
**.T_0_2.ipcProcess[0].difName = "tf0.2.0"
**.T_0_2.ipcProcess[1].difName = "tf0.2.1"
**.T_0_2.ipcProcess[2].difName = "tf0.2.2"
**.T_0_3.ipcProcess[0].difName = "tf0.3.0"
**.T_0_3.ipcProcess[1].difName = "tf0.3.1"
**.T_0_3.ipcProcess[2].difName = "tf0.3.2"
**.T_1_0.ipcProcess[0].difName = "tf1.0.0"
**.T_1_0.ipcProcess[1].difName = "tf1.0.1"
**.T_1_0.ipcProcess[2].difName = "tf1.0.2"
**.T_1_1.ipcProcess[0].difName = "tf1.1.0"
**.T_1_1.ipcProcess[1].difName = "tf1.1.1"
**.T_1_1.ipcProcess[2].difName = "tf1.1.2"
**.T_1_2.ipcProcess[0].difName = "tf1.2.0"
**.T_1_2.ipcProcess[1].difName = "tf1.2.1"
**.T_1_2.ipcProcess[2].difName = "tf1.2.2"
**.T_1_3.ipcProcess[0].difName = "tf1.3.0"
**.T_1_3.ipcProcess[1].difName = "tf1.3.1"
**.T_1_3.ipcProcess[2].difName = "tf1.3.2"
**.T_2_0.ipcProcess[0].difName = "tf2.0.0"
**.T_2_0.ipcProcess[1].difName = "tf2.0.1"
**.T_2_0.ipcProcess[2].difName = "tf2.0.2"
**.T_2_1.ipcProcess[0].difName = "tf2.1.0"
**.T_2_1.ipcProcess[1].difName = "tf2.1.1"
**.T_2_1.ipcProcess[2].difName = "tf2.1.2"
**.T_2_2.ipcProcess[0].difName = "tf2.2.0"
**.T_2_2.ipcProcess[1].difName = "tf2.2.1"
**.T_2_2.ipcProcess[2].difName = "tf2.2.2"
**.T_2_3.ipcProcess[0].difName = "tf2.3.0"
**.T_2_3.ipcProcess[1].difName = "tf2.3.1"
**.T_2_3.ipcProcess[2].difName = "tf2.3.2"
**.T_3_0.ipcProcess[0].difName = "tf3.0.0"
**.T_3_0.ipcProcess[1].difName = "tf3.0.1"
**.T_3_0.ipcProcess[2].difName = "tf3.0.2"
**.T_3_1.ipcProcess[0].difName = "tf3.1.0"
**.T_3_1.ipcProcess[1].difName = "tf3.1.1"
**.T_3_1.ipcProcess[2].difName = "tf3.1.2"
**.T_3_2.ipcProcess[0].difName = "tf3.2.0"
**.T_3_2.ipcProcess[1].difName = "tf3.2.1"
**.T_3_2.ipcProcess[2].difName = "tf3.2.2"
**.T_3_3.ipcProcess[0].difName = "tf3.3.0"
**.T_3_3.ipcProcess[1].difName = "tf3.3.1"
**.T_3_3.ipcProcess[2].difName = "tf3.3.2"


**.F_0_0.ipcProcess[0].difName = "tf0.0.0"
**.F_0_0.ipcProcess[1].difName = "tf0.1.0"
**.F_0_0.ipcProcess[2].difName = "tf0.2.0"
**.F_0_0.ipcProcess[3].difName = "tf0.3.0"
**.F_0_0.ipcProcess[4].difName = "fs0.0.0"
**.F_0_0.ipcProcess[5].difName = "fs0.0.1"
**.F_0_0.ipcProcess[6].difName = "fs0.0.2"
**.F_0_0.ipcProcess[7].difName = "fs0.0.3"
**.F_0_0.ipcProcess[8].difName = "fs0.0.4"
**.F_0_0.ipcProcess[9].difName = "fs0.0.5"
**.F_0_0.ipcProcess[10].difName = "fs0.0.6"
**.F_0_0.ipcProcess[11].difName = "fs0.0.7"
**.F_0_0.ipcProcess[12].difName = "fs0.0.8"
**.F_0_0.ipcProcess[13].difName = "fs0.0.9"
**.F_0_1.ipcProcess[0].difName = "tf0.0.1"
**.F_0_1.ipcProcess[1].difName = "tf0.1.1"
**.F_0_1.ipcProcess[2].difName = "tf0.2.1"
**.F_0_1.ipcProcess[3].difName = "tf0.3.1"
**.F_0_1.ipcProcess[4].difName = "fs0.1.0"
**.F_0_1.ipcProcess[5].difName = "fs0.1.1"
**.F_0_1.ipcProcess[6].difName = "fs0.1.2"
**.F_0_1.ipcProcess[7].difName = "fs0.1.3"
**.F_0_1.ipcProcess[8].difName = "fs0.1.4"
**.F_0_1.ipcProcess[9].difName = "fs0.1.5"
**.F_0_1.ipcProcess[10].difName = "fs0.1.6"
**.F_0_1.ipcProcess[11].difName = "fs0.1.7"
**.F_0_1.ipcProcess[12].difName = "fs0.1.8"
**.F_0_1.ipcProcess[13].difName = "fs0.1.9"
**.F_0_2.ipcProcess[0].difName = "tf0.0.2"
**.F_0_2.ipcProcess[1].difName = "tf0.1.2"
**.F_0_2.ipcProcess[2].difName = "tf0.2.2"
**.F_0_2.ipcProcess[3].difName = "tf0.3.2"
**.F_0_2.ipcProcess[4].difName = "fs0.2.0"
**.F_0_2.ipcProcess[5].difName = "fs0.2.1"
**.F_0_2.ipcProcess[6].difName = "fs0.2.2"
**.F_0_2.ipcProcess[7].difName = "fs0.2.3"
**.F_0_2.ipcProcess[8].difName = "fs0.2.4"
**.F_0_2.ipcProcess[9].difName = "fs0.2.5"
**.F_0_2.ipcProcess[10].difName = "fs0.2.6"
**.F_0_2.ipcProcess[11].difName = "fs0.2.7"
**.F_0_2.ipcProcess[12].difName = "fs0.2.8"
**.F_0_2.ipcProcess[13].difName = "fs0.2.9"
**.F_1_0.ipcProcess[0].difName = "tf1.0.0"
**.F_1_0.ipcProcess[1].difName = "tf1.1.0"
**.F_1_0.ipcProcess[2].difName = "tf1.2.0"
**.F_1_0.ipcProcess[3].difName = "tf1.3.0"
**.F_1_0.ipcProcess[4].difName = "fs1.0.0"
**.F_1_0.ipcProcess[5].difName = "fs1.0.1"
**.F_1_0.ipcProcess[6].difName = "fs1.0.2"
**.F_1_0.ipcProcess[7].difName = "fs1.0.3"
**.F_1_0.ipcProcess[8].difName = "fs1.0.4"
**.F_1_0.ipcProcess[9].difName = "fs1.0.5"
**.F_1_0.ipcProcess[10].difName = "fs1.0.6"
**.F_1_0.ipcProcess[11].difName = "fs1.0.7"
**.F_1_0.ipcProcess[12].difName = "fs1.0.8"
**.F_1_0.ipcProcess[13].difName = "fs1.0.9"
**.F_1_1.ipcProcess[0].difName = "tf1.0.1"
**.F_1_1.ipcProcess[1].difName = "tf1.1.1"
**.F_1_1.ipcProcess[2].difName = "tf1.2.1"
**.F_1_1.ipcProcess[3].difName = "tf1.3.1"
**.F_1_1.ipcProcess[4].difName = "fs1.1.0"
**.F_1_1.ipcProcess[5].difName = "fs1.1.1"
**.F_1_1.ipcProcess[6].difName = "fs1.1.2"
**.F_1_1.ipcProcess[7].difName = "fs1.1.3"
**.F_1_1.ipcProcess[8].difName = "fs1.1.4"
**.F_1_1.ipcProcess[9].difName = "fs1.1.5"
**.F_1_1.ipcProcess[10].difName = "fs1.1.6"
**.F_1_1.ipcProcess[11].difName = "fs1.1.7"
**.F_1_1.ipcProcess[12].difName = "fs1.1.8"
**.F_1_1.ipcProcess[13].difName = "fs1.1.9"
**.F_1_2.ipcProcess[0].difName = "tf1.0.2"
**.F_1_2.ipcProcess[1].difName = "tf1.1.2"
**.F_1_2.ipcProcess[2].difName = "tf1.2.2"
**.F_1_2.ipcProcess[3].difName = "tf1.3.2"
**.F_1_2.ipcProcess[4].difName = "fs1.2.0"
**.F_1_2.ipcProcess[5].difName = "fs1.2.1"
**.F_1_2.ipcProcess[6].difName = "fs1.2.2"
**.F_1_2.ipcProcess[7].difName = "fs1.2.3"
**.F_1_2.ipcProcess[8].difName = "fs1.2.4"
**.F_1_2.ipcProcess[9].difName = "fs1.2.5"
**.F_1_2.ipcProcess[10].difName = "fs1.2.6"
**.F_1_2.ipcProcess[11].difName = "fs1.2.7"
**.F_1_2.ipcProcess[12].difName = "fs1.2.8"
**.F_1_2.ipcProcess[13].difName = "fs1.2.9"
**.F_2_0.ipcProcess[0].difName = "tf2.0.0"
**.F_2_0.ipcProcess[1].difName = "tf2.1.0"
**.F_2_0.ipcProcess[2].difName = "tf2.2.0"
**.F_2_0.ipcProcess[3].difName = "tf2.3.0"
**.F_2_0.ipcProcess[4].difName = "fs2.0.0"
**.F_2_0.ipcProcess[5].difName = "fs2.0.1"
**.F_2_0.ipcProcess[6].difName = "fs2.0.2"
**.F_2_0.ipcProcess[7].difName = "fs2.0.3"
**.F_2_0.ipcProcess[8].difName = "fs2.0.4"
**.F_2_0.ipcProcess[9].difName = "fs2.0.5"
**.F_2_0.ipcProcess[10].difName = "fs2.0.6"
**.F_2_0.ipcProcess[11].difName = "fs2.0.7"
**.F_2_0.ipcProcess[12].difName = "fs2.0.8"
**.F_2_0.ipcProcess[13].difName = "fs2.0.9"
**.F_2_1.ipcProcess[0].difName = "tf2.0.1"
**.F_2_1.ipcProcess[1].difName = "tf2.1.1"
**.F_2_1.ipcProcess[2].difName = "tf2.2.1"
**.F_2_1.ipcProcess[3].difName = "tf2.3.1"
**.F_2_1.ipcProcess[4].difName = "fs2.1.0"
**.F_2_1.ipcProcess[5].difName = "fs2.1.1"
**.F_2_1.ipcProcess[6].difName = "fs2.1.2"
**.F_2_1.ipcProcess[7].difName = "fs2.1.3"
**.F_2_1.ipcProcess[8].difName = "fs2.1.4"
**.F_2_1.ipcProcess[9].difName = "fs2.1.5"
**.F_2_1.ipcProcess[10].difName = "fs2.1.6"
**.F_2_1.ipcProcess[11].difName = "fs2.1.7"
**.F_2_1.ipcProcess[12].difName = "fs2.1.8"
**.F_2_1.ipcProcess[13].difName = "fs2.1.9"
**.F_2_2.ipcProcess[0].difName = "tf2.0.2"
**.F_2_2.ipcProcess[1].difName = "tf2.1.2"
**.F_2_2.ipcProcess[2].difName = "tf2.2.2"
**.F_2_2.ipcProcess[3].difName = "tf2.3.2"
**.F_2_2.ipcProcess[4].difName = "fs2.2.0"
**.F_2_2.ipcProcess[5].difName = "fs2.2.1"
**.F_2_2.ipcProcess[6].difName = "fs2.2.2"
**.F_2_2.ipcProcess[7].difName = "fs2.2.3"
**.F_2_2.ipcProcess[8].difName = "fs2.2.4"
**.F_2_2.ipcProcess[9].difName = "fs2.2.5"
**.F_2_2.ipcProcess[10].difName = "fs2.2.6"
**.F_2_2.ipcProcess[11].difName = "fs2.2.7"
**.F_2_2.ipcProcess[12].difName = "fs2.2.8"
**.F_2_2.ipcProcess[13].difName = "fs2.2.9"
**.F_3_0.ipcProcess[0].difName = "tf3.0.0"
**.F_3_0.ipcProcess[1].difName = "tf3.1.0"
**.F_3_0.ipcProcess[2].difName = "tf3.2.0"
**.F_3_0.ipcProcess[3].difName = "tf3.3.0"
**.F_3_0.ipcProcess[4].difName = "fs3.0.0"
**.F_3_0.ipcProcess[5].difName = "fs3.0.1"
**.F_3_0.ipcProcess[6].difName = "fs3.0.2"
**.F_3_0.ipcProcess[7].difName = "fs3.0.3"
**.F_3_0.ipcProcess[8].difName = "fs3.0.4"
**.F_3_0.ipcProcess[9].difName = "fs3.0.5"
**.F_3_0.ipcProcess[10].difName = "fs3.0.6"
**.F_3_0.ipcProcess[11].difName = "fs3.0.7"
**.F_3_0.ipcProcess[12].difName = "fs3.0.8"
**.F_3_0.ipcProcess[13].difName = "fs3.0.9"
**.F_3_1.ipcProcess[0].difName = "tf3.0.1"
**.F_3_1.ipcProcess[1].difName = "tf3.1.1"
**.F_3_1.ipcProcess[2].difName = "tf3.2.1"
**.F_3_1.ipcProcess[3].difName = "tf3.3.1"
**.F_3_1.ipcProcess[4].difName = "fs3.1.0"
**.F_3_1.ipcProcess[5].difName = "fs3.1.1"
**.F_3_1.ipcProcess[6].difName = "fs3.1.2"
**.F_3_1.ipcProcess[7].difName = "fs3.1.3"
**.F_3_1.ipcProcess[8].difName = "fs3.1.4"
**.F_3_1.ipcProcess[9].difName = "fs3.1.5"
**.F_3_1.ipcProcess[10].difName = "fs3.1.6"
**.F_3_1.ipcProcess[11].difName = "fs3.1.7"
**.F_3_1.ipcProcess[12].difName = "fs3.1.8"
**.F_3_1.ipcProcess[13].difName = "fs3.1.9"
**.F_3_2.ipcProcess[0].difName = "tf3.0.2"
**.F_3_2.ipcProcess[1].difName = "tf3.1.2"
**.F_3_2.ipcProcess[2].difName = "tf3.2.2"
**.F_3_2.ipcProcess[3].difName = "tf3.3.2"
**.F_3_2.ipcProcess[4].difName = "fs3.2.0"
**.F_3_2.ipcProcess[5].difName = "fs3.2.1"
**.F_3_2.ipcProcess[6].difName = "fs3.2.2"
**.F_3_2.ipcProcess[7].difName = "fs3.2.3"
**.F_3_2.ipcProcess[8].difName = "fs3.2.4"
**.F_3_2.ipcProcess[9].difName = "fs3.2.5"
**.F_3_2.ipcProcess[10].difName = "fs3.2.6"
**.F_3_2.ipcProcess[11].difName = "fs3.2.7"
**.F_3_2.ipcProcess[12].difName = "fs3.2.8"
**.F_3_2.ipcProcess[13].difName = "fs3.2.9"

**.E_0_0.ipcProcess[0].difName = "eo0.0.0"
**.E_0_0.ipcProcess[1].difName = "eo0.0.1"
**.E_0_0.ipcProcess[2].difName = "eo0.0.2"
**.E_0_1.ipcProcess[0].difName = "eo0.1.0"
**.E_0_1.ipcProcess[1].difName = "eo0.1.1"
**.E_0_1.ipcProcess[2].difName = "eo0.1.2"
**.E_0_2.ipcProcess[0].difName = "eo0.2.0"
**.E_0_2.ipcProcess[1].difName = "eo0.2.1"
**.E_0_2.ipcProcess[2].difName = "eo0.2.2"
**.E_1_0.ipcProcess[0].difName = "eo1.0.0"
**.E_1_0.ipcProcess[1].difName = "eo1.0.1"
**.E_1_0.ipcProcess[2].difName = "eo1.0.2"
**.E_1_1.ipcProcess[0].difName = "eo1.1.0"
**.E_1_1.ipcProcess[1].difName = "eo1.1.1"
**.E_1_1.ipcProcess[2].difName = "eo1.1.2"
**.E_1_2.ipcProcess[0].difName = "eo1.2.0"
**.E_1_2.ipcProcess[1].difName = "eo1.2.1"
**.E_1_2.ipcProcess[2].difName = "eo1.2.2"


**.O_0_0.ipcProcess[0].difName = "eo0.0.0"
**.O_0_0.ipcProcess[1].difName = "eo0.1.0"
**.O_0_0.ipcProcess[2].difName = "eo0.2.0"
**.O_0_0.ipcProcess[3].difName = "os0.0.0"
**.O_0_0.ipcProcess[4].difName = "os0.0.1"
**.O_0_0.ipcProcess[5].difName = "os0.0.2"
**.O_0_0.ipcProcess[6].difName = "os0.0.3"
**.O_0_0.ipcProcess[7].difName = "os0.0.4"
**.O_0_0.ipcProcess[8].difName = "os0.0.5"
**.O_0_0.ipcProcess[9].difName = "os0.0.6"
**.O_0_0.ipcProcess[10].difName = "os0.0.7"
**.O_0_0.ipcProcess[11].difName = "os0.0.8"
**.O_0_0.ipcProcess[12].difName = "os0.0.9"
**.O_0_1.ipcProcess[0].difName = "eo0.0.1"
**.O_0_1.ipcProcess[1].difName = "eo0.1.1"
**.O_0_1.ipcProcess[2].difName = "eo0.2.1"
**.O_0_1.ipcProcess[3].difName = "os0.1.0"
**.O_0_1.ipcProcess[4].difName = "os0.1.1"
**.O_0_1.ipcProcess[5].difName = "os0.1.2"
**.O_0_1.ipcProcess[6].difName = "os0.1.3"
**.O_0_1.ipcProcess[7].difName = "os0.1.4"
**.O_0_1.ipcProcess[8].difName = "os0.1.5"
**.O_0_1.ipcProcess[9].difName = "os0.1.6"
**.O_0_1.ipcProcess[10].difName = "os0.1.7"
**.O_0_1.ipcProcess[11].difName = "os0.1.8"
**.O_0_1.ipcProcess[12].difName = "os0.1.9"
**.O_0_2.ipcProcess[0].difName = "eo0.0.2"
**.O_0_2.ipcProcess[1].difName = "eo0.1.2"
**.O_0_2.ipcProcess[2].difName = "eo0.2.2"
**.O_0_2.ipcProcess[3].difName = "os0.2.0"
**.O_0_2.ipcProcess[4].difName = "os0.2.1"
**.O_0_2.ipcProcess[5].difName = "os0.2.2"
**.O_0_2.ipcProcess[6].difName = "os0.2.3"
**.O_0_2.ipcProcess[7].difName = "os0.2.4"
**.O_0_2.ipcProcess[8].difName = "os0.2.5"
**.O_0_2.ipcProcess[9].difName = "os0.2.6"
**.O_0_2.ipcProcess[10].difName = "os0.2.7"
**.O_0_2.ipcProcess[11].difName = "os0.2.8"
**.O_0_2.ipcProcess[12].difName = "os0.2.9"
**.O_1_0.ipcProcess[0].difName = "eo1.0.0"
**.O_1_0.ipcProcess[1].difName = "eo1.1.0"
**.O_1_0.ipcProcess[2].difName = "eo1.2.0"
**.O_1_0.ipcProcess[3].difName = "os1.0.0"
**.O_1_0.ipcProcess[4].difName = "os1.0.1"
**.O_1_0.ipcProcess[5].difName = "os1.0.2"
**.O_1_0.ipcProcess[6].difName = "os1.0.3"
**.O_1_0.ipcProcess[7].difName = "os1.0.4"
**.O_1_0.ipcProcess[8].difName = "os1.0.5"
**.O_1_0.ipcProcess[9].difName = "os1.0.6"
**.O_1_0.ipcProcess[10].difName = "os1.0.7"
**.O_1_0.ipcProcess[11].difName = "os1.0.8"
**.O_1_0.ipcProcess[12].difName = "os1.0.9"
**.O_1_1.ipcProcess[0].difName = "eo1.0.1"
**.O_1_1.ipcProcess[1].difName = "eo1.1.1"
**.O_1_1.ipcProcess[2].difName = "eo1.2.1"
**.O_1_1.ipcProcess[3].difName = "os1.1.0"
**.O_1_1.ipcProcess[4].difName = "os1.1.1"
**.O_1_1.ipcProcess[5].difName = "os1.1.2"
**.O_1_1.ipcProcess[6].difName = "os1.1.3"
**.O_1_1.ipcProcess[7].difName = "os1.1.4"
**.O_1_1.ipcProcess[8].difName = "os1.1.5"
**.O_1_1.ipcProcess[9].difName = "os1.1.6"
**.O_1_1.ipcProcess[10].difName = "os1.1.7"
**.O_1_1.ipcProcess[11].difName = "os1.1.8"
**.O_1_1.ipcProcess[12].difName = "os1.1.9"
**.O_1_2.ipcProcess[0].difName = "eo1.0.2"
**.O_1_2.ipcProcess[1].difName = "eo1.1.2"
**.O_1_2.ipcProcess[2].difName = "eo1.2.2"
**.O_1_2.ipcProcess[3].difName = "os1.2.0"
**.O_1_2.ipcProcess[4].difName = "os1.2.1"
**.O_1_2.ipcProcess[5].difName = "os1.2.2"
**.O_1_2.ipcProcess[6].difName = "os1.2.3"
**.O_1_2.ipcProcess[7].difName = "os1.2.4"
**.O_1_2.ipcProcess[8].difName = "os1.2.5"
**.O_1_2.ipcProcess[9].difName = "os1.2.6"
**.O_1_2.ipcProcess[10].difName = "os1.2.7"
**.O_1_2.ipcProcess[11].difName = "os1.2.8"
**.O_1_2.ipcProcess[12].difName = "os1.2.9"

**.S_0.ipcProcess[0].difName = "fs0.0.0"
**.S_0.ipcProcess[1].difName = "fs0.1.0"
**.S_0.ipcProcess[2].difName = "fs0.2.0"
**.S_0.ipcProcess[3].difName = "fs1.0.0"
**.S_0.ipcProcess[4].difName = "fs1.1.0"
**.S_0.ipcProcess[5].difName = "fs1.2.0"
**.S_0.ipcProcess[6].difName = "fs2.0.0"
**.S_0.ipcProcess[7].difName = "fs2.1.0"
**.S_0.ipcProcess[8].difName = "fs2.2.0"
**.S_0.ipcProcess[9].difName = "fs3.0.0"
**.S_0.ipcProcess[10].difName = "fs3.1.0"
**.S_0.ipcProcess[11].difName = "fs3.2.0"
**.S_0.ipcProcess[12].difName = "os0.0.0"
**.S_0.ipcProcess[13].difName = "os0.1.0"
**.S_0.ipcProcess[14].difName = "os0.2.0"
**.S_0.ipcProcess[15].difName = "os1.0.0"
**.S_0.ipcProcess[16].difName = "os1.1.0"
**.S_0.ipcProcess[17].difName = "os1.2.0"
**.S_1.ipcProcess[0].difName = "fs0.0.1"
**.S_1.ipcProcess[1].difName = "fs0.1.1"
**.S_1.ipcProcess[2].difName = "fs0.2.1"
**.S_1.ipcProcess[3].difName = "fs1.0.1"
**.S_1.ipcProcess[4].difName = "fs1.1.1"
**.S_1.ipcProcess[5].difName = "fs1.2.1"
**.S_1.ipcProcess[6].difName = "fs2.0.1"
**.S_1.ipcProcess[7].difName = "fs2.1.1"
**.S_1.ipcProcess[8].difName = "fs2.2.1"
**.S_1.ipcProcess[9].difName = "fs3.0.1"
**.S_1.ipcProcess[10].difName = "fs3.1.1"
**.S_1.ipcProcess[11].difName = "fs3.2.1"
**.S_1.ipcProcess[12].difName = "os0.0.1"
**.S_1.ipcProcess[13].difName = "os0.1.1"
**.S_1.ipcProcess[14].difName = "os0.2.1"
**.S_1.ipcProcess[15].difName = "os1.0.1"
**.S_1.ipcProcess[16].difName = "os1.1.1"
**.S_1.ipcProcess[17].difName = "os1.2.1"
**.S_2.ipcProcess[0].difName = "fs0.0.2"
**.S_2.ipcProcess[1].difName = "fs0.1.2"
**.S_2.ipcProcess[2].difName = "fs0.2.2"
**.S_2.ipcProcess[3].difName = "fs1.0.2"
**.S_2.ipcProcess[4].difName = "fs1.1.2"
**.S_2.ipcProcess[5].difName = "fs1.2.2"
**.S_2.ipcProcess[6].difName = "fs2.0.2"
**.S_2.ipcProcess[7].difName = "fs2.1.2"
**.S_2.ipcProcess[8].difName = "fs2.2.2"
**.S_2.ipcProcess[9].difName = "fs3.0.2"
**.S_2.ipcProcess[10].difName = "fs3.1.2"
**.S_2.ipcProcess[11].difName = "fs3.2.2"
**.S_2.ipcProcess[12].difName = "os0.0.2"
**.S_2.ipcProcess[13].difName = "os0.1.2"
**.S_2.ipcProcess[14].difName = "os0.2.2"
**.S_2.ipcProcess[15].difName = "os1.0.2"
**.S_2.ipcProcess[16].difName = "os1.1.2"
**.S_2.ipcProcess[17].difName = "os1.2.2"
**.S_3.ipcProcess[0].difName = "fs0.0.3"
**.S_3.ipcProcess[1].difName = "fs0.1.3"
**.S_3.ipcProcess[2].difName = "fs0.2.3"
**.S_3.ipcProcess[3].difName = "fs1.0.3"
**.S_3.ipcProcess[4].difName = "fs1.1.3"
**.S_3.ipcProcess[5].difName = "fs1.2.3"
**.S_3.ipcProcess[6].difName = "fs2.0.3"
**.S_3.ipcProcess[7].difName = "fs2.1.3"
**.S_3.ipcProcess[8].difName = "fs2.2.3"
**.S_3.ipcProcess[9].difName = "fs3.0.3"
**.S_3.ipcProcess[10].difName = "fs3.1.3"
**.S_3.ipcProcess[11].difName = "fs3.2.3"
**.S_3.ipcProcess[12].difName = "os0.0.3"
**.S_3.ipcProcess[13].difName = "os0.1.3"
**.S_3.ipcProcess[14].difName = "os0.2.3"
**.S_3.ipcProcess[15].difName = "os1.0.3"
**.S_3.ipcProcess[16].difName = "os1.1.3"
**.S_3.ipcProcess[17].difName = "os1.2.3"
**.S_4.ipcProcess[0].difName = "fs0.0.4"
**.S_4.ipcProcess[1].difName = "fs0.1.4"
**.S_4.ipcProcess[2].difName = "fs0.2.4"
**.S_4.ipcProcess[3].difName = "fs1.0.4"
**.S_4.ipcProcess[4].difName = "fs1.1.4"
**.S_4.ipcProcess[5].difName = "fs1.2.4"
**.S_4.ipcProcess[6].difName = "fs2.0.4"
**.S_4.ipcProcess[7].difName = "fs2.1.4"
**.S_4.ipcProcess[8].difName = "fs2.2.4"
**.S_4.ipcProcess[9].difName = "fs3.0.4"
**.S_4.ipcProcess[10].difName = "fs3.1.4"
**.S_4.ipcProcess[11].difName = "fs3.2.4"
**.S_4.ipcProcess[12].difName = "os0.0.4"
**.S_4.ipcProcess[13].difName = "os0.1.4"
**.S_4.ipcProcess[14].difName = "os0.2.4"
**.S_4.ipcProcess[15].difName = "os1.0.4"
**.S_4.ipcProcess[16].difName = "os1.1.4"
**.S_4.ipcProcess[17].difName = "os1.2.4"
**.S_5.ipcProcess[0].difName = "fs0.0.5"
**.S_5.ipcProcess[1].difName = "fs0.1.5"
**.S_5.ipcProcess[2].difName = "fs0.2.5"
**.S_5.ipcProcess[3].difName = "fs1.0.5"
**.S_5.ipcProcess[4].difName = "fs1.1.5"
**.S_5.ipcProcess[5].difName = "fs1.2.5"
**.S_5.ipcProcess[6].difName = "fs2.0.5"
**.S_5.ipcProcess[7].difName = "fs2.1.5"
**.S_5.ipcProcess[8].difName = "fs2.2.5"
**.S_5.ipcProcess[9].difName = "fs3.0.5"
**.S_5.ipcProcess[10].difName = "fs3.1.5"
**.S_5.ipcProcess[11].difName = "fs3.2.5"
**.S_5.ipcProcess[12].difName = "os0.0.5"
**.S_5.ipcProcess[13].difName = "os0.1.5"
**.S_5.ipcProcess[14].difName = "os0.2.5"
**.S_5.ipcProcess[15].difName = "os1.0.5"
**.S_5.ipcProcess[16].difName = "os1.1.5"
**.S_5.ipcProcess[17].difName = "os1.2.5"
**.S_6.ipcProcess[0].difName = "fs0.0.6"
**.S_6.ipcProcess[1].difName = "fs0.1.6"
**.S_6.ipcProcess[2].difName = "fs0.2.6"
**.S_6.ipcProcess[3].difName = "fs1.0.6"
**.S_6.ipcProcess[4].difName = "fs1.1.6"
**.S_6.ipcProcess[5].difName = "fs1.2.6"
**.S_6.ipcProcess[6].difName = "fs2.0.6"
**.S_6.ipcProcess[7].difName = "fs2.1.6"
**.S_6.ipcProcess[8].difName = "fs2.2.6"
**.S_6.ipcProcess[9].difName = "fs3.0.6"
**.S_6.ipcProcess[10].difName = "fs3.1.6"
**.S_6.ipcProcess[11].difName = "fs3.2.6"
**.S_6.ipcProcess[12].difName = "os0.0.6"
**.S_6.ipcProcess[13].difName = "os0.1.6"
**.S_6.ipcProcess[14].difName = "os0.2.6"
**.S_6.ipcProcess[15].difName = "os1.0.6"
**.S_6.ipcProcess[16].difName = "os1.1.6"
**.S_6.ipcProcess[17].difName = "os1.2.6"
**.S_7.ipcProcess[0].difName = "fs0.0.7"
**.S_7.ipcProcess[1].difName = "fs0.1.7"
**.S_7.ipcProcess[2].difName = "fs0.2.7"
**.S_7.ipcProcess[3].difName = "fs1.0.7"
**.S_7.ipcProcess[4].difName = "fs1.1.7"
**.S_7.ipcProcess[5].difName = "fs1.2.7"
**.S_7.ipcProcess[6].difName = "fs2.0.7"
**.S_7.ipcProcess[7].difName = "fs2.1.7"
**.S_7.ipcProcess[8].difName = "fs2.2.7"
**.S_7.ipcProcess[9].difName = "fs3.0.7"
**.S_7.ipcProcess[10].difName = "fs3.1.7"
**.S_7.ipcProcess[11].difName = "fs3.2.7"
**.S_7.ipcProcess[12].difName = "os0.0.7"
**.S_7.ipcProcess[13].difName = "os0.1.7"
**.S_7.ipcProcess[14].difName = "os0.2.7"
**.S_7.ipcProcess[15].difName = "os1.0.7"
**.S_7.ipcProcess[16].difName = "os1.1.7"
**.S_7.ipcProcess[17].difName = "os1.2.7"
**.S_8.ipcProcess[0].difName = "fs0.0.8"
**.S_8.ipcProcess[1].difName = "fs0.1.8"
**.S_8.ipcProcess[2].difName = "fs0.2.8"
**.S_8.ipcProcess[3].difName = "fs1.0.8"
**.S_8.ipcProcess[4].difName = "fs1.1.8"
**.S_8.ipcProcess[5].difName = "fs1.2.8"
**.S_8.ipcProcess[6].difName = "fs2.0.8"
**.S_8.ipcProcess[7].difName = "fs2.1.8"
**.S_8.ipcProcess[8].difName = "fs2.2.8"
**.S_8.ipcProcess[9].difName = "fs3.0.8"
**.S_8.ipcProcess[10].difName = "fs3.1.8"
**.S_8.ipcProcess[11].difName = "fs3.2.8"
**.S_8.ipcProcess[12].difName = "os0.0.8"
**.S_8.ipcProcess[13].difName = "os0.1.8"
**.S_8.ipcProcess[14].difName = "os0.2.8"
**.S_8.ipcProcess[15].difName = "os1.0.8"
**.S_8.ipcProcess[16].difName = "os1.1.8"
**.S_8.ipcProcess[17].difName = "os1.2.8"
**.S_9.ipcProcess[0].difName = "fs0.0.9"
**.S_9.ipcProcess[1].difName = "fs0.1.9"
**.S_9.ipcProcess[2].difName = "fs0.2.9"
**.S_9.ipcProcess[3].difName = "fs1.0.9"
**.S_9.ipcProcess[4].difName = "fs1.1.9"
**.S_9.ipcProcess[5].difName = "fs1.2.9"
**.S_9.ipcProcess[6].difName = "fs2.0.9"
**.S_9.ipcProcess[7].difName = "fs2.1.9"
**.S_9.ipcProcess[8].difName = "fs2.2.9"
**.S_9.ipcProcess[9].difName = "fs3.0.9"
**.S_9.ipcProcess[10].difName = "fs3.1.9"
**.S_9.ipcProcess[11].difName = "fs3.2.9"
**.S_9.ipcProcess[12].difName = "os0.0.9"
**.S_9.ipcProcess[13].difName = "os0.1.9"
**.S_9.ipcProcess[14].difName = "os0.2.9"
**.S_9.ipcProcess[15].difName = "os1.0.9"
**.S_9.ipcProcess[16].difName = "os1.1.9"
**.S_9.ipcProcess[17].difName = "os1.2.9"



**.defaultThreshQLength = 0
**.defaultMaxQLength =  10

**.efcp.maxPDUSize = 100000B
**.efcp.maxSDUSize = 100000B


**.ipcProcess[*].**.queueAllocPolicyName = "QueuePerNFlow"
**.ipcProcess[*].**.queueIdGenName = "IDPerNFlow"

**.ipcProcess[*].relayAndMux.maxQPolicyName = "TailDrop"
**.ipcProcess[*].relayAndMux.qMonitorPolicyName = "IterativeStopMonitor"
**.ipcProcess[*].relayAndMux.schedPolicyName = "IterativeScheduling"


**.relayIpc.**.queueAllocPolicyName = "QueuePerNQoS"
**.relayIpc.**.queueIdGenName = "IDPerNQoS"

**.relayIpc.relayAndMux.maxQPolicyName = "DumbMaxQ"
**.relayIpc.relayAndMux.qMonitorPolicyName = "ModularMonitor"
**.relayIpc.relayAndMux.schedPolicyName = "DumbSch"
**.relayIpc.relayAndMux.queueMonitorPolicy.outputOutSubModule_Type = "MM_DL_Out"
**.relayIpc.relayAndMux.queueMonitorPolicy.outputOutSubModule.data = xmldoc("modules.xml", "Configuration/DLOUT")

**.relayIpc.relayAndMux.queueMonitorPolicy.outputDropSubModule_Type = "MM_DQ_Drop"
**.relayIpc.relayAndMux.queueMonitorPolicy.outputDropSubModule.data = xmldoc("modules.xml", "Configuration/DQQueueDrop")

**.infection.pods = 4 
**.infection.torXpod = 4 
**.infection.fabricXpod = 3 
**.infection.spineXfabric = 10 
**.infection.edgeSets = 3 

**.infection.qosId = "BE"

**.infection.iniTime = 100
**.infection.interTime = 1
**.infection.loop = 0
**.infection.toTors = true
**.infection.toFabric = true
**.infection.toSpines = true
**.infection.toEdges = true

[Config SimpleTable]

#Routing settings
**.relayIpc.resourceAllocator.pdufgPolicyName = "SimpleHopMEntries"
**.relayIpc.resourceAllocator.pduFwdGenerator.infinite = 32

**.relayIpc.relayAndMux.ForwardingPolicyName = "MultiMiniTable"

**.relayIpc.routingPolicyName = "TSimpleDV"

**.S_0.relayIpc.**.printAtEnd = true



[Config GDC]
#Routing settings
**.relayIpc.resourceAllocator.pdufgPolicyName = "GDC_FWG"

**.T**.relayIpc.relayAndMux.ForwardingPolicyName = "GDC_L2"
**.F**.relayIpc.relayAndMux.ForwardingPolicyName = "GDC_L1"
**.S**.relayIpc.relayAndMux.ForwardingPolicyName = "GDC_L0"
**.E**.relayIpc.relayAndMux.ForwardingPolicyName = "GDC_L2"
**.O**.relayIpc.relayAndMux.ForwardingPolicyName = "GDC_L1"

**.T**.relayIpc.routingPolicyName = "GDC_R2"
**.F**.relayIpc.routingPolicyName = "GDC_R1"
**.S**.relayIpc.routingPolicyName = "GDC_R0"
**.E**.relayIpc.routingPolicyName = "GDC_R2"
**.O**.relayIpc.routingPolicyName = "GDC_R1"

**.nPod = 4 
**.nTor = 4 
**.nFab = 3 
**.nSpines = 10 
**.nEdge = 3 
**.nEdgeP = 2 

**.relayIpc.routingPolicy.starttime = 5
**.relayIpc.routingPolicy.oldAfter = 5
**.relayIpc.routingPolicy.expiresAfter = 20

**.T_0_0.relayIpc.relayAndMux.pduForwardingPolicy.printAtEnd = true
**.F_0_0.relayIpc.relayAndMux.pduForwardingPolicy.printAtEnd = true
#**.F_1_0.relayIpc.relayAndMux.pduForwardingPolicy.printAtEnd = true
#**.F_1_1.relayIpc.relayAndMux.pduForwardingPolicy.printAtEnd = true
#**.F_1_2.relayIpc.relayAndMux.pduForwardingPolicy.printAtEnd = true
#**.F_0_0.relayIpc.relayAndMux.pduForwardingPolicy.printAtEnd = true
**.S_0.relayIpc.relayAndMux.pduForwardingPolicy.printAtEnd = true
#**.E_0_0.relayIpc.relayAndMux.pduForwardingPolicy.printAtEnd = true
#**.O_0_0.relayIpc.relayAndMux.pduForwardingPolicy.printAtEnd = true
#**.O_1_0.relayIpc.relayAndMux.pduForwardingPolicy.printAtEnd = true

**.cacheLivespan = 300
