[General] 
network = DistributedCloudsLS
sim-time-limit = 5min
repeat = 5
seed-set = ${repetition}
#**.scalar-recording =true
#**.vector-recording =true
#**.pduft-length.scalar-recording = true
#
# Appliction entities naming:
#
 **.VIFIBN1.AP.apName = "App1"
 **.VIFIBN2.AP.apName = "App2"
 **.VIFIBN3.AP.apName = "App3"
 **.VIFIBN4.AP.apName = "App4"
 **.VIFIBN5.AP.apName = "App5"
 **.VIFIBN6.AP.apName = "App6"
 **.VIFIBN7.AP.apName = "App7"
 **.VIFIBN8.AP.apName = "App8"
 **.VIFIBN9.AP.apName = "App9"
 **.VIFIBN10.AP.apName = "App10"
 **.VIFIBN11.AP.apName = "App11"
 **.VIFIBN12.AP.apName = "App12"
 **.VIFIBN13.AP.apName = "App13"
# **.VIFIBN14.AP.apName = "App14"
 **.VIFIBN15.AP.apName = "App15"
 **.VIFIBN16.AP.apName = "App16"
 **.VIFIBN17.AP.apName = "App17"
 **.VIFIBN18.AP.apName = "App18"
 **.VIFIBN19.AP.apName = "App19"
 **.VIFIBN20.AP.apName = "App20"
 **.VIFIBN21.AP.apName = "App21"
 **.VIFIBN22.AP.apName = "App22"
 **.VIFIBN23.AP.apName = "App23"
 **.VIFIBN24.AP.apName = "App24"
 **.VIFIBN25.AP.apName = "App25"
 **.VIFIBN26.AP.apName = "App26"
 **.VIFIBN27.AP.apName = "App27"
 **.VIFIBN28.AP.apName = "App28"
 **.VIFIBN29.AP.apName = "App29"
 **.VIFIBN30.AP.apName = "App30"
 **.VIFIBN31.AP.apName = "App31"
 **.VIFIBN32.AP.apName = "App32"
 **.VIFIBN33.AP.apName = "App33"
 **.VIFIBN34.AP.apName = "App34"
 **.VIFIBN35.AP.apName = "App35"
 **.VIFIBN36.AP.apName = "App36"
 **.VIFIBN37.AP.apName = "App37"
 **.VIFIBN38.AP.apName = "App38"
 **.VIFIBN39.AP.apName = "App39"
 **.VIFIBN40.AP.apName = "App40"
 **.VIFIBN41.AP.apName = "App41"
 **.VIFIBN42.AP.apName = "App42"
 **.VIFIBN43.AP.apName = "App43"
 **.VIFIBN44.AP.apName = "App44"
 **.VIFIBN45.AP.apName = "App45"
 **.VIFIBN46.AP.apName = "App46"
 **.VIFIBN47.AP.apName = "App47"
 **.VIFIBN48.AP.apName = "App48"
 **.VIFIBN49.AP.apName = "App49"
 **.VIFIBN50.AP.apName = "App50"
 **.VIFIBN51.AP.apName = "App51"
 **.VIFIBN52.AP.apName = "App52"
 **.VIFIBN53.AP.apName = "App53"
 **.VIFIBN54.AP.apName = "App54"
 **.VIFIBN55.AP.apName = "App55"
 **.VIFIBN56.AP.apName = "App56"
 **.VIFIBN57.AP.apName = "App57"
 **.VIFIBN58.AP.apName = "App58"
 **.VIFIBN59.AP.apName = "App59"
 **.VIFIBN60.AP.apName = "App60"
 **.VIFIBN61.AP.apName = "App61"
 **.VIFIBN62.AP.apName = "App62"
 **.VIFIBN63.AP.apName = "App63"
 **.VIFIBN64.AP.apName = "App64"
 **.VIFIBN65.AP.apName = "App65"
 **.VIFIBN66.AP.apName = "App66"
 **.VIFIBN67.AP.apName = "App67"
 **.VIFIBN68.AP.apName = "App68"
 **.VIFIBN69.AP.apName = "App69"
 **.VIFIBN70.AP.apName = "App70"
 **.VIFIBN71.AP.apName = "App71"
 **.VIFIBN72.AP.apName = "App72"
 **.VIFIBN73.AP.apName = "App73"
 **.VIFIBN74.AP.apName = "App74"
 **.VIFIBN75.AP.apName = "App75"
 **.VIFIBN76.AP.apName = "App76"
 **.VIFIBN77.AP.apName = "App77"
 **.VIFIBN78.AP.apName = "App78"
 **.VIFIBN79.AP.apName = "App79"
 **.VIFIBN80.AP.apName = "App80"
 **.VIFIBN81.AP.apName = "App81"
 **.VIFIBN82.AP.apName = "App82"
 **.VIFIBN83.AP.apName = "App83"
 **.VIFIBN84.AP.apName = "App84"
 **.VIFIBN85.AP.apName = "App85"
 **.VIFIBN86.AP.apName = "App86"
 **.VIFIBN87.AP.apName = "App87"
 **.VIFIBN88.AP.apName = "App88"
 **.VIFIBN89.AP.apName = "App89"
 **.VIFIBN90.AP.apName = "App90"
 **.VIFIBN91.AP.apName = "App91"
 **.VIFIBN92.AP.apName = "App92"
 **.VIFIBN93.AP.apName = "App93"
 **.VIFIBN94.AP.apName = "App94"
 **.VIFIBN95.AP.apName = "App95"
 **.VIFIBN96.AP.apName = "App96"
 **.VIFIBN97.AP.apName = "App97"
 **.VIFIBN98.AP.apName = "App98"
 **.VIFIBN99.AP.apName = "App99"
 **.VIFIBN100.AP.apName = "App100"
 **.VIFIBN101.AP.apName = "App101"
 **.VIFIBN102.AP.apName = "App102"
 **.VIFIBN103.AP.apName = "App103"
 **.VIFIBN104.AP.apName = "App104"
 **.VIFIBN105.AP.apName = "App105"
 **.VIFIBN106.AP.apName = "App106"
 **.VIFIBN107.AP.apName = "App107"
 **.VIFIBN108.AP.apName = "App108"
 **.VIFIBN109.AP.apName = "App109"
 **.VIFIBN110.AP.apName = "App110"
 **.VIFIBN111.AP.apName = "App111"
 **.VIFIBN112.AP.apName = "App112"
 **.VIFIBN113.AP.apName = "App113"
 **.VIFIBN114.AP.apName = "App114"
 **.VIFIBN115.AP.apName = "App115"
 **.VIFIBN116.AP.apName = "App116"
**.VIFIBN120.AP.apName 	= "App120"
**.VIFIBN121.AP.apName 	= "App121"
**.VIFIBN122.AP.apName	= "App122"
**.VIFIBN123.AP.apName 	= "App123"
**.applicationEntity.aeType 			= "AEPing"
**.iae.aeName 							= "Ping"

#
# Server instances addressing:
#
# G1 Shims:
**.VIFIBN1.ShimIPC0.difName 			= "Shim1To17"
**.VIFIBN1.ShimIPC0.ipcAddress 	 	= "1"
**.VIFIBN17.ShimIPC1.difName 			= "Shim1To17"
**.VIFIBN17.ShimIPC1.ipcAddress 	 	= "2"

**.VIFIBN1.ShimIPC1.difName 			= "Shim1To120"
**.VIFIBN1.ShimIPC1.ipcAddress 	 	= "1"
**.VIFIBN120.ShimIPC0.difName 		= "Shim1To120"
**.VIFIBN120.ShimIPC0.ipcAddress 	 	= "2"

**.VIFIBN14.ShimIPC0.difName 			= "Shim14To120"
**.VIFIBN14.ShimIPC0.ipcAddress 	 	= "1"
**.VIFIBN120.ShimIPC5.difName 		= "Shim14To120"
**.VIFIBN120.ShimIPC5.ipcAddress 	 	= "2"

**.VIFIBN2.ShimIPC1.difName 			= "Shim2To120"
**.VIFIBN2.ShimIPC1.ipcAddress 	 	= "1"
**.VIFIBN120.ShimIPC1.difName 		= "Shim2To120"
**.VIFIBN120.ShimIPC1.ipcAddress 	 	= "2"

**.VIFIBN24.ShimIPC0.difName 			= "Shim25To24"
**.VIFIBN24.ShimIPC0.ipcAddress 	 	= "1"
**.VIFIBN25.ShimIPC0.difName 			= "Shim25To24"
**.VIFIBN25.ShimIPC0.ipcAddress 	 	= "2"

**.VIFIBN24.ShimIPC1.difName 			= "Shim14To24"
**.VIFIBN24.ShimIPC1.ipcAddress 	 	= "1"
**.VIFIBN14.ShimIPC1.difName 			= "Shim14To24"
**.VIFIBN14.ShimIPC1.ipcAddress 	 	= "2"

**.VIFIBN25.ShimIPC1.difName 			= "Shim25To11"
**.VIFIBN25.ShimIPC1.ipcAddress 	 	= "1"
**.VIFIBN11.ShimIPC0.difName 			= "Shim25To11"
**.VIFIBN11.ShimIPC0.ipcAddress 	 	= "2"

**.VIFIBN6.ShimIPC0.difName 			= "Shim6To11"
**.VIFIBN6.ShimIPC0.ipcAddress 	 	= "1"
**.VIFIBN11.ShimIPC1.difName 			= "Shim6To11"
**.VIFIBN11.ShimIPC1.ipcAddress 	 	= "2"

**.VIFIBN15.ShimIPC0.difName 			= "Shim15To17"
**.VIFIBN15.ShimIPC0.ipcAddress 	 	= "1"
**.VIFIBN17.ShimIPC0.difName 			= "Shim15To17"
**.VIFIBN17.ShimIPC0.ipcAddress 	 	= "2"

**.VIFIBN15.ShimIPC1.difName 			= "Shim15To18"
**.VIFIBN15.ShimIPC1.ipcAddress 	 	= "1"
**.VIFIBN18.ShimIPC1.difName 			= "Shim15To18"
**.VIFIBN18.ShimIPC1.ipcAddress 	 	= "2"

**.VIFIBN10.ShimIPC1.difName 			= "Shim10To18"
**.VIFIBN10.ShimIPC1.ipcAddress 	 	= "1"
**.VIFIBN18.ShimIPC0.difName 			= "Shim10To18"
**.VIFIBN18.ShimIPC0.ipcAddress 	 	= "2"

**.VIFIBN8.ShimIPC1.difName 			= "Shim8To10"
**.VIFIBN8.ShimIPC1.ipcAddress 	 	= "1"
**.VIFIBN10.ShimIPC0.difName 			= "Shim8To10"
**.VIFIBN10.ShimIPC0.ipcAddress 	 	= "2"

**.VIFIBN8.ShimIPC0.difName 			= "Shim8To9"
**.VIFIBN8.ShimIPC0.ipcAddress 	 	= "1"
**.VIFIBN9.ShimIPC0.difName 			= "Shim8To9"
**.VIFIBN9.ShimIPC0.ipcAddress 	 	= "2"

**.VIFIBN9.ShimIPC1.difName 			= "Shim6To9"
**.VIFIBN9.ShimIPC1.ipcAddress 	 	= "1"
**.VIFIBN6.ShimIPC1.difName 			= "Shim6To9"
**.VIFIBN6.ShimIPC1.ipcAddress 	 	= "2"

**.VIFIBN2.ShimIPC0.difName 			= "Shim2To3"
**.VIFIBN2.ShimIPC0.ipcAddress 	 	= "1"
**.VIFIBN3.ShimIPC0.difName 			= "Shim2To3"
**.VIFIBN3.ShimIPC0.ipcAddress 	 	= "2"

**.VIFIBN4.ShimIPC0.difName 			= "Shim4To3"
**.VIFIBN4.ShimIPC0.ipcAddress 	 	= "1"
**.VIFIBN3.ShimIPC1.difName 			= "Shim4To3"
**.VIFIBN3.ShimIPC1.ipcAddress 	 	= "2"

**.VIFIBN4.ShimIPC1.difName 			= "Shim4To5"
**.VIFIBN4.ShimIPC1.ipcAddress 	 	= "1"
**.VIFIBN5.ShimIPC0.difName 			= "Shim4To5"
**.VIFIBN5.ShimIPC0.ipcAddress 	 	= "2"

**.VIFIBN7.ShimIPC0.difName 			= "Shim7To5"
**.VIFIBN7.ShimIPC0.ipcAddress 	 	= "1"
**.VIFIBN5.ShimIPC1.difName 			= "Shim7To5"
**.VIFIBN5.ShimIPC1.ipcAddress 	 	= "2"

**.VIFIBN7.ShimIPC1.difName 			= "Shim7To22"
**.VIFIBN7.ShimIPC1.ipcAddress 	 	= "1"
**.VIFIBN22.ShimIPC0.difName 			= "Shim7To22"
**.VIFIBN22.ShimIPC0.ipcAddress 	 	= "2"

**.VIFIBN23.ShimIPC0.difName 			= "Shim23To22"
**.VIFIBN23.ShimIPC0.ipcAddress 	 	= "1"
**.VIFIBN22.ShimIPC1.difName 			= "Shim23To22"
**.VIFIBN22.ShimIPC1.ipcAddress 	 	= "2"

**.VIFIBN23.ShimIPC1.difName 			= "Shim23To29"
**.VIFIBN23.ShimIPC1.ipcAddress 	 	= "1"
**.VIFIBN29.ShimIPC1.difName 			= "Shim23To29"
**.VIFIBN29.ShimIPC1.ipcAddress 	 	= "2"

**.VIFIBN19.ShimIPC1.difName 			= "Shim19To29"
**.VIFIBN19.ShimIPC1.ipcAddress 	 	= "1"
**.VIFIBN29.ShimIPC0.difName 			= "Shim19To29"
**.VIFIBN29.ShimIPC0.ipcAddress 	 	= "2"

**.VIFIBN19.ShimIPC0.difName 			= "Shim19To21"
**.VIFIBN19.ShimIPC0.ipcAddress 	 	= "1"
**.VIFIBN21.ShimIPC0.difName 			= "Shim19To21"
**.VIFIBN21.ShimIPC0.ipcAddress 	 	= "2"

**.VIFIBN20.ShimIPC1.difName 			= "Shim20To21"
**.VIFIBN20.ShimIPC1.ipcAddress 	 	= "1"
**.VIFIBN21.ShimIPC1.difName 			= "Shim20To21"
**.VIFIBN21.ShimIPC1.ipcAddress 	 	= "2"

**.VIFIBN20.ShimIPC0.difName 			= "Shim20To26"
**.VIFIBN20.ShimIPC0.ipcAddress 	 	= "1"
**.VIFIBN26.ShimIPC1.difName 			= "Shim20To26"
**.VIFIBN26.ShimIPC1.ipcAddress 	 	= "2"

**.VIFIBN13.ShimIPC1.difName 			= "Shim13To26"
**.VIFIBN13.ShimIPC1.ipcAddress 	 	= "1"
**.VIFIBN26.ShimIPC0.difName 			= "Shim13To26"
**.VIFIBN26.ShimIPC0.ipcAddress 	 	= "2"

**.VIFIBN13.ShimIPC0.difName 			= "Shim13To12"
**.VIFIBN13.ShimIPC0.ipcAddress 	 	= "1"
**.VIFIBN12.ShimIPC0.difName 			= "Shim13To12"
**.VIFIBN12.ShimIPC0.ipcAddress 	 	= "2"

**.VIFIBN27.ShimIPC0.difName 			= "Shim27To12"
**.VIFIBN27.ShimIPC0.ipcAddress 	 	= "1"
**.VIFIBN12.ShimIPC1.difName 			= "Shim27To12"
**.VIFIBN12.ShimIPC1.ipcAddress 	 	= "2"

**.VIFIBN27.ShimIPC1.difName 			= "Shim27To16"
**.VIFIBN27.ShimIPC1.ipcAddress 	 	= "1"
**.VIFIBN16.ShimIPC0.difName 			= "Shim27To16"
**.VIFIBN16.ShimIPC0.ipcAddress 	 	= "2"

**.VIFIBN28.ShimIPC0.difName 			= "Shim28To16"
**.VIFIBN28.ShimIPC0.ipcAddress 	 	= "1"
**.VIFIBN16.ShimIPC1.difName 			= "Shim28To16"
**.VIFIBN16.ShimIPC1.ipcAddress 	 	= "2"

**.VIFIBN28.ShimIPC1.difName 			= "Shim28To36"
**.VIFIBN28.ShimIPC1.ipcAddress 	 	= "1"
**.VIFIBN36.ShimIPC1.difName 			= "Shim28To36"
**.VIFIBN36.ShimIPC1.ipcAddress 	 	= "2"


# G2 Shims:
**.VIFIBN121.ShimIPC0.difName 		= "Shim30To121"
**.VIFIBN121.ShimIPC0.ipcAddress 	 	= "1"
**.VIFIBN30.ShimIPC0.difName 		= "Shim30To121"
**.VIFIBN30.ShimIPC0.ipcAddress 	 	= "2"

**.VIFIBN121.ShimIPC1.difName 		= "Shim31To121"
**.VIFIBN121.ShimIPC1.ipcAddress 	 	= "1"
**.VIFIBN31.ShimIPC0.difName 		= "Shim31To121"
**.VIFIBN31.ShimIPC0.ipcAddress 	 	= "2"

**.VIFIBN121.ShimIPC6.difName 		= "Shim41To121"
**.VIFIBN121.ShimIPC6.ipcAddress 	 	= "1"
**.VIFIBN41.ShimIPC0.difName 		= "Shim41To121"
**.VIFIBN41.ShimIPC0.ipcAddress 	 	= "2"

**.VIFIBN121.ShimIPC5.difName 		= "Shim47To121"
**.VIFIBN121.ShimIPC5.ipcAddress 	 	= "1"
**.VIFIBN47.ShimIPC1.difName 		= "Shim47To121"
**.VIFIBN47.ShimIPC1.ipcAddress 	 	= "2"

**.VIFIBN56.ShimIPC1.difName 			= "Shim41To56"
**.VIFIBN56.ShimIPC1.ipcAddress 	 	= "2"
**.VIFIBN41.ShimIPC1.difName 		= "Shim41To56"
**.VIFIBN41.ShimIPC1.ipcAddress 	 	= "2"

**.VIFIBN52.ShimIPC0.difName 			= "Shim52To56"
**.VIFIBN52.ShimIPC0.ipcAddress 	 	= "1"
**.VIFIBN56.ShimIPC0.difName 			= "Shim52To56"
**.VIFIBN56.ShimIPC0.ipcAddress 	 	= "2"

**.VIFIBN52.ShimIPC1.difName 			= "Shim52To51"
**.VIFIBN52.ShimIPC1.ipcAddress 	 	= "1"
**.VIFIBN51.ShimIPC1.difName 			= "Shim52To51"
**.VIFIBN51.ShimIPC1.ipcAddress 	 	= "2"

**.VIFIBN36.ShimIPC0.difName 			= "Shim36To51"
**.VIFIBN36.ShimIPC0.ipcAddress 	 	= "1"
**.VIFIBN51.ShimIPC0.difName 			= "Shim36To51"
**.VIFIBN51.ShimIPC0.ipcAddress 	 	= "2"

**.VIFIBN31.ShimIPC1.difName 		= "Shim31To32"
**.VIFIBN31.ShimIPC1.ipcAddress 	 	= "1"
**.VIFIBN32.ShimIPC0.difName 			= "Shim31To32"
**.VIFIBN32.ShimIPC0.ipcAddress 	 	= "2"

**.VIFIBN33.ShimIPC0.difName 		= "Shim33To32"
**.VIFIBN33.ShimIPC0.ipcAddress 	 	= "1"
**.VIFIBN32.ShimIPC1.difName 			= "Shim33To32"
**.VIFIBN32.ShimIPC1.ipcAddress 	 	= "2"

**.VIFIBN33.ShimIPC1.difName 		= "Shim33To34"
**.VIFIBN33.ShimIPC1.ipcAddress 	 	= "1"
**.VIFIBN34.ShimIPC0.difName 			= "Shim33To34"
**.VIFIBN34.ShimIPC0.ipcAddress 	 	= "2"

**.VIFIBN35.ShimIPC0.difName 		= "Shim35To34"
**.VIFIBN35.ShimIPC0.ipcAddress 	 	= "1"
**.VIFIBN34.ShimIPC1.difName 			= "Shim35To34"
**.VIFIBN34.ShimIPC1.ipcAddress 	 	= "2"

**.VIFIBN35.ShimIPC1.difName 		= "Shim35To40"
**.VIFIBN35.ShimIPC1.ipcAddress 	 	= "1"
**.VIFIBN40.ShimIPC1.difName 			= "Shim35To40"
**.VIFIBN40.ShimIPC1.ipcAddress 	 	= "2"

**.VIFIBN54.ShimIPC1.difName 		= "Shim54To40"
**.VIFIBN54.ShimIPC1.ipcAddress 	 	= "1"
**.VIFIBN40.ShimIPC0.difName 			= "Shim54To40"
**.VIFIBN40.ShimIPC0.ipcAddress 	 	= "2"

**.VIFIBN54.ShimIPC0.difName 		= "Shim54To53"
**.VIFIBN54.ShimIPC0.ipcAddress 	 	= "1"
**.VIFIBN53.ShimIPC0.difName 			= "Shim54To53"
**.VIFIBN53.ShimIPC0.ipcAddress 	 	= "2"

**.VIFIBN46.ShimIPC1.difName 		= "Shim46To53"
**.VIFIBN46.ShimIPC1.ipcAddress 	 	= "1"
**.VIFIBN53.ShimIPC1.difName 			= "Shim46To53"
**.VIFIBN53.ShimIPC1.ipcAddress 	 	= "2"

**.VIFIBN46.ShimIPC0.difName 		= "Shim46To43"
**.VIFIBN46.ShimIPC0.ipcAddress 	 	= "1"
**.VIFIBN43.ShimIPC0.difName 			= "Shim46To43"
**.VIFIBN43.ShimIPC0.ipcAddress 	 	= "2"

**.VIFIBN66.ShimIPC0.difName 		= "Shim66To43"
**.VIFIBN66.ShimIPC0.ipcAddress 	 	= "1"
**.VIFIBN43.ShimIPC1.difName 			= "Shim66To43"
**.VIFIBN43.ShimIPC1.ipcAddress 	 	= "2"

**.VIFIBN47.ShimIPC0.difName 		= "Shim47To39"
**.VIFIBN47.ShimIPC0.ipcAddress 	 	= "1"
**.VIFIBN39.ShimIPC1.difName 			= "Shim47To39"
**.VIFIBN39.ShimIPC1.ipcAddress 	 	= "2"

**.VIFIBN37.ShimIPC1.difName 		= "Shim37To39"
**.VIFIBN37.ShimIPC1.ipcAddress 	 	= "1"
**.VIFIBN39.ShimIPC0.difName 			= "Shim37To39"
**.VIFIBN39.ShimIPC0.ipcAddress 	 	= "2"

**.VIFIBN37.ShimIPC0.difName 		= "Shim37To38"
**.VIFIBN37.ShimIPC0.ipcAddress 	 	= "1"
**.VIFIBN38.ShimIPC0.difName 			= "Shim37To38"
**.VIFIBN38.ShimIPC0.ipcAddress 	 	= "2"

**.VIFIBN45.ShimIPC0.difName 		= "Shim45To38"
**.VIFIBN45.ShimIPC0.ipcAddress 	 	= "1"
**.VIFIBN38.ShimIPC1.difName 			= "Shim45To38"
**.VIFIBN38.ShimIPC1.ipcAddress 	 	= "2"

**.VIFIBN45.ShimIPC1.difName 		= "Shim45To55"
**.VIFIBN45.ShimIPC1.ipcAddress 	 	= "1"
**.VIFIBN55.ShimIPC0.difName 			= "Shim45To55"
**.VIFIBN55.ShimIPC0.ipcAddress 	 	= "2"

**.VIFIBN49.ShimIPC1.difName 		= "Shim49To55"
**.VIFIBN49.ShimIPC1.ipcAddress 	 	= "1"
**.VIFIBN55.ShimIPC1.difName 			= "Shim49To55"
**.VIFIBN55.ShimIPC1.ipcAddress 	 	= "2"

**.VIFIBN49.ShimIPC0.difName 		= "Shim49To57"
**.VIFIBN49.ShimIPC0.ipcAddress 	 	= "1"
**.VIFIBN57.ShimIPC1.difName 			= "Shim49To57"
**.VIFIBN57.ShimIPC1.ipcAddress 	 	= "2"

**.VIFIBN42.ShimIPC0.difName 		= "Shim42To57"
**.VIFIBN42.ShimIPC0.ipcAddress 	 	= "1"
**.VIFIBN57.ShimIPC0.difName 			= "Shim42To57"
**.VIFIBN57.ShimIPC0.ipcAddress 	 	= "2"

**.VIFIBN42.ShimIPC1.difName 		= "Shim42To50"
**.VIFIBN42.ShimIPC1.ipcAddress 	 	= "1"
**.VIFIBN50.ShimIPC0.difName 			= "Shim42To50"
**.VIFIBN50.ShimIPC0.ipcAddress 	 	= "2"

**.VIFIBN72.ShimIPC1.difName 		= "Shim72To50"
**.VIFIBN72.ShimIPC1.ipcAddress 	 	= "1"
**.VIFIBN50.ShimIPC1.difName 			= "Shim72To50"
**.VIFIBN50.ShimIPC1.ipcAddress 	 	= "2"

**.VIFIBN44.ShimIPC1.difName 		= "Shim30To44"
**.VIFIBN44.ShimIPC1.ipcAddress 	 	= "1"
**.VIFIBN30.ShimIPC1.difName 			= "Shim30To44"
**.VIFIBN30.ShimIPC1.ipcAddress 	 	= "2"

**.VIFIBN44.ShimIPC0.difName 		= "Shim48To44"
**.VIFIBN44.ShimIPC0.ipcAddress 	 	= "1"
**.VIFIBN48.ShimIPC0.difName 			= "Shim48To44"
**.VIFIBN48.ShimIPC0.ipcAddress 	 	= "2"

**.VIFIBN58.ShimIPC0.difName 		= "Shim48To58"
**.VIFIBN58.ShimIPC0.ipcAddress 	 	= "1"
**.VIFIBN48.ShimIPC1.difName 			= "Shim48To58"
**.VIFIBN48.ShimIPC1.ipcAddress 	 	= "2"

**.VIFIBN58.ShimIPC1.difName 		= "Shim48To122"
**.VIFIBN58.ShimIPC1.ipcAddress 	 	= "1"
**.VIFIBN122.ShimIPC5.difName 	= "Shim48To122"
**.VIFIBN122.ShimIPC5.ipcAddress 	 	= "2"

# G3 Shims:
**.VIFIBN122.ShimIPC0.difName 		= "Shim59To122"
**.VIFIBN122.ShimIPC0.ipcAddress 	 	= "2"
**.VIFIBN59.ShimIPC0.difName 			= "Shim59To122"
**.VIFIBN59.ShimIPC0.ipcAddress 	 	= "1"

**.VIFIBN122.ShimIPC1.difName 		= "Shim60To122"
**.VIFIBN122.ShimIPC1.ipcAddress 	 	= "2"
**.VIFIBN60.ShimIPC0.difName 			= "Shim60To122"
**.VIFIBN60.ShimIPC0.ipcAddress 	 	= "1"

**.VIFIBN122.ShimIPC6.difName 		= "Shim85To122"
**.VIFIBN122.ShimIPC6.ipcAddress 	 	= "2"
**.VIFIBN85.ShimIPC0.difName 			= "Shim85To122"
**.VIFIBN85.ShimIPC0.ipcAddress 	 	= "1"

**.VIFIBN75.ShimIPC0.difName 		= "Shim60To75"
**.VIFIBN75.ShimIPC0.ipcAddress 	 	= "1"
**.VIFIBN60.ShimIPC1.difName 			= "Shim60To75"
**.VIFIBN60.ShimIPC1.ipcAddress 	 	= "2"

**.VIFIBN75.ShimIPC1.difName 		= "Shim82To75"
**.VIFIBN75.ShimIPC1.ipcAddress 	 	= "1"
**.VIFIBN82.ShimIPC1.difName 			= "Shim82To75"
**.VIFIBN82.ShimIPC1.ipcAddress 	 	= "2"

**.VIFIBN83.ShimIPC0.difName 		= "Shim82To83"
**.VIFIBN83.ShimIPC0.ipcAddress 	 	= "1"
**.VIFIBN82.ShimIPC0.difName 			= "Shim82To83"
**.VIFIBN82.ShimIPC0.ipcAddress 	 	= "2"

**.VIFIBN83.ShimIPC1.difName 		= "Shim69To83"
**.VIFIBN83.ShimIPC1.ipcAddress 	 	= "1"
**.VIFIBN69.ShimIPC0.difName 			= "Shim69To83"
**.VIFIBN69.ShimIPC0.ipcAddress 	 	= "2"

**.VIFIBN64.ShimIPC1.difName 		= "Shim69To64"
**.VIFIBN64.ShimIPC1.ipcAddress 	 	= "1"
**.VIFIBN69.ShimIPC1.difName 			= "Shim69To64"
**.VIFIBN69.ShimIPC1.ipcAddress 	 	= "2"

**.VIFIBN64.ShimIPC0.difName 		= "Shim63To64"
**.VIFIBN64.ShimIPC0.ipcAddress 	 	= "1"
**.VIFIBN63.ShimIPC1.difName 			= "Shim63To64"
**.VIFIBN63.ShimIPC1.ipcAddress 	 	= "2"

**.VIFIBN65.ShimIPC0.difName 		= "Shim63To65"
**.VIFIBN65.ShimIPC0.ipcAddress 	 	= "1"
**.VIFIBN63.ShimIPC0.difName 			= "Shim63To65"
**.VIFIBN63.ShimIPC0.ipcAddress 	 	= "2"

**.VIFIBN65.ShimIPC1.difName 		= "Shim80To65"
**.VIFIBN65.ShimIPC1.ipcAddress 	 	= "1"
**.VIFIBN80.ShimIPC0.difName 			= "Shim80To65"
**.VIFIBN80.ShimIPC0.ipcAddress 	 	= "2"

**.VIFIBN81.ShimIPC1.difName 		= "Shim80To81"
**.VIFIBN81.ShimIPC1.ipcAddress 	 	= "1"
**.VIFIBN80.ShimIPC1.difName 			= "Shim80To81"
**.VIFIBN80.ShimIPC1.ipcAddress 	 	= "2"

**.VIFIBN81.ShimIPC0.difName 		= "Shim77To81"
**.VIFIBN81.ShimIPC0.ipcAddress 	 	= "1"
**.VIFIBN77.ShimIPC1.difName 			= "Shim77To81"
**.VIFIBN77.ShimIPC1.ipcAddress 	 	= "2"

**.VIFIBN73.ShimIPC0.difName 		= "Shim77To73"
**.VIFIBN73.ShimIPC0.ipcAddress 	 	= "1"
**.VIFIBN77.ShimIPC0.difName 			= "Shim77To73"
**.VIFIBN77.ShimIPC0.ipcAddress 	 	= "2"

**.VIFIBN73.ShimIPC1.difName 		    = "Shim76To73"
**.VIFIBN73.ShimIPC1.ipcAddress 	 	= "1"
**.VIFIBN76.ShimIPC1.difName 			= "Shim76To73"
**.VIFIBN76.ShimIPC1.ipcAddress 	 	= "2"

**.VIFIBN68.ShimIPC1.difName 		    = "Shim76To68"
**.VIFIBN68.ShimIPC1.ipcAddress 	 	= "1"
**.VIFIBN76.ShimIPC0.difName 			= "Shim76To68"
**.VIFIBN76.ShimIPC0.ipcAddress 	 	= "2"

**.VIFIBN68.ShimIPC0.difName 		    = "Shim114To68"
**.VIFIBN68.ShimIPC0.ipcAddress 	 	= "1"
**.VIFIBN114.ShimIPC0.difName 			= "Shim114To68"
**.VIFIBN114.ShimIPC0.ipcAddress 	 	= "2"

**.VIFIBN59.ShimIPC1.difName 			= "Shim59To74"
**.VIFIBN59.ShimIPC1.ipcAddress 	 	= "1"
**.VIFIBN74.ShimIPC0.difName 			= "Shim59To74"
**.VIFIBN74.ShimIPC0.ipcAddress 	 	= "2"

**.VIFIBN84.ShimIPC0.difName 			= "Shim84To74"
**.VIFIBN84.ShimIPC0.ipcAddress 	 	= "1"
**.VIFIBN74.ShimIPC1.difName 			= "Shim84To74"
**.VIFIBN74.ShimIPC1.ipcAddress 	 	= "2"

**.VIFIBN84.ShimIPC1.difName 			= "Shim84To71"
**.VIFIBN84.ShimIPC1.ipcAddress 	 	= "1"
**.VIFIBN71.ShimIPC1.difName 			= "Shim84To71"
**.VIFIBN71.ShimIPC1.ipcAddress 	 	= "2"

**.VIFIBN86.ShimIPC0.difName 			= "Shim86To71"
**.VIFIBN86.ShimIPC0.ipcAddress 	 	= "1"
**.VIFIBN71.ShimIPC0.difName 			= "Shim86To71"
**.VIFIBN71.ShimIPC0.ipcAddress 	 	= "2"

**.VIFIBN86.ShimIPC1.difName 			= "Shim86To78"
**.VIFIBN86.ShimIPC1.ipcAddress 	 	= "1"
**.VIFIBN78.ShimIPC0.difName 			= "Shim86To78"
**.VIFIBN78.ShimIPC0.ipcAddress 	 	= "2"

**.VIFIBN79.ShimIPC1.difName 			= "Shim79To78"
**.VIFIBN79.ShimIPC1.ipcAddress 	 	= "1"
**.VIFIBN78.ShimIPC1.difName 			= "Shim79To78"
**.VIFIBN78.ShimIPC1.ipcAddress 	 	= "2"

**.VIFIBN79.ShimIPC0.difName 			= "Shim79To87"
**.VIFIBN79.ShimIPC0.ipcAddress 	 	= "1"
**.VIFIBN87.ShimIPC0.difName 			= "Shim79To87"
**.VIFIBN87.ShimIPC0.ipcAddress 	 	= "2"

**.VIFIBN67.ShimIPC0.difName 			= "Shim67To87"
**.VIFIBN67.ShimIPC0.ipcAddress 	 	= "1"
**.VIFIBN87.ShimIPC1.difName 			= "Shim67To87"
**.VIFIBN87.ShimIPC1.ipcAddress 	 	= "2"

**.VIFIBN67.ShimIPC1.difName 			= "Shim67To72"
**.VIFIBN67.ShimIPC1.ipcAddress 	 	= "1"
**.VIFIBN72.ShimIPC0.difName 			= "Shim67To72"
**.VIFIBN72.ShimIPC0.ipcAddress 	 	= "2"

**.VIFIBN85.ShimIPC1.difName 			= "Shim85To70"
**.VIFIBN85.ShimIPC1.ipcAddress 	 	= "1"
**.VIFIBN70.ShimIPC1.difName 			= "Shim85To70"
**.VIFIBN70.ShimIPC1.ipcAddress 	 	= "2"

**.VIFIBN61.ShimIPC1.difName 			= "Shim61To70"
**.VIFIBN61.ShimIPC1.ipcAddress 	 	= "1"
**.VIFIBN70.ShimIPC0.difName 			= "Shim61To70"
**.VIFIBN70.ShimIPC0.ipcAddress 	 	= "2"

**.VIFIBN61.ShimIPC0.difName 			= "Shim61To62"
**.VIFIBN61.ShimIPC0.ipcAddress 	 	= "1"
**.VIFIBN62.ShimIPC0.difName 			= "Shim61To62"
**.VIFIBN62.ShimIPC0.ipcAddress 	 	= "2"

**.VIFIBN66.ShimIPC1.difName 			= "Shim66To62"
**.VIFIBN66.ShimIPC1.ipcAddress 	 	= "1"
**.VIFIBN62.ShimIPC1.difName 			= "Shim66To62"
**.VIFIBN62.ShimIPC1.ipcAddress 	 	= "2"



# G4 Shims:
**.VIFIBN123.ShimIPC6.difName 		= "Shim114To123"
**.VIFIBN123.ShimIPC6.ipcAddress 	 	= "1"
**.VIFIBN114.ShimIPC1.difName 	    = "Shim114To123"
**.VIFIBN114.ShimIPC1.ipcAddress 	 	= "2"

**.VIFIBN123.ShimIPC0.difName 		= "Shim88To123"
**.VIFIBN123.ShimIPC0.ipcAddress 	 	= "1"
**.VIFIBN88.ShimIPC0.difName 	        = "Shim88To123"
**.VIFIBN88.ShimIPC0.ipcAddress 	 	= "2"

**.VIFIBN123.ShimIPC1.difName 		= "Shim89To123"
**.VIFIBN123.ShimIPC1.ipcAddress 	 	= "1"
**.VIFIBN89.ShimIPC0.difName 	        = "Shim89To123"
**.VIFIBN89.ShimIPC0.ipcAddress 	 	= "2"

**.VIFIBN123.ShimIPC4.difName 		= "Shim100To123"
**.VIFIBN123.ShimIPC4.ipcAddress 	 	= "1"
**.VIFIBN100.ShimIPC1.difName 	    = "Shim100To123"
**.VIFIBN100.ShimIPC1.ipcAddress 	 	= "2"


**.VIFIBN115.ShimIPC0.difName 		= "Shim100To115"
**.VIFIBN115.ShimIPC0.ipcAddress 	 	= "1"
**.VIFIBN100.ShimIPC0.difName 	    = "Shim100To115"
**.VIFIBN100.ShimIPC0.ipcAddress 	 	= "2"

**.VIFIBN115.ShimIPC1.difName 		= "Shim101To115"
**.VIFIBN115.ShimIPC1.ipcAddress 	 	= "1"
**.VIFIBN101.ShimIPC1.difName 	    = "Shim101To115"
**.VIFIBN101.ShimIPC1.ipcAddress 	 	= "2"

**.VIFIBN104.ShimIPC0.difName 		= "Shim101To104"
**.VIFIBN104.ShimIPC0.ipcAddress 	 	= "1"
**.VIFIBN101.ShimIPC0.difName 	    = "Shim101To104"
**.VIFIBN101.ShimIPC0.ipcAddress 	 	= "2"

**.VIFIBN104.ShimIPC1.difName 		= "Shim111To104"
**.VIFIBN104.ShimIPC1.ipcAddress 	 	= "1"
**.VIFIBN111.ShimIPC1.difName 	    = "Shim111To104"
**.VIFIBN111.ShimIPC1.ipcAddress 	 	= "2"

**.VIFIBN112.ShimIPC0.difName 		= "Shim111To112"
**.VIFIBN112.ShimIPC0.ipcAddress 	 	= "1"
**.VIFIBN111.ShimIPC0.difName 	    = "Shim111To112"
**.VIFIBN111.ShimIPC0.ipcAddress 	 	= "2"

**.VIFIBN112.ShimIPC1.difName 		= "Shim98To112"
**.VIFIBN112.ShimIPC1.ipcAddress 	 	= "1"
**.VIFIBN98.ShimIPC0.difName 	        = "Shim98To112"
**.VIFIBN98.ShimIPC0.ipcAddress 	 	= "2"

**.VIFIBN93.ShimIPC1.difName 		    = "Shim98To93"
**.VIFIBN93.ShimIPC1.ipcAddress 	 	= "1"
**.VIFIBN98.ShimIPC1.difName 	        = "Shim98To93"
**.VIFIBN98.ShimIPC1.ipcAddress 	 	= "2"

**.VIFIBN93.ShimIPC0.difName 		    = "Shim92To93"
**.VIFIBN93.ShimIPC0.ipcAddress 	 	= "1"
**.VIFIBN92.ShimIPC1.difName 	        = "Shim92To93"
**.VIFIBN92.ShimIPC1.ipcAddress 	 	= "2"

**.VIFIBN91.ShimIPC1.difName 		    = "Shim92To91"
**.VIFIBN91.ShimIPC1.ipcAddress 	 	= "1"
**.VIFIBN92.ShimIPC0.difName 	        = "Shim92To91"
**.VIFIBN92.ShimIPC0.ipcAddress 	 	= "2"

**.VIFIBN91.ShimIPC0.difName 		    = "Shim90To91"
**.VIFIBN91.ShimIPC0.ipcAddress 	 	= "1"
**.VIFIBN90.ShimIPC1.difName 	        = "Shim90To91"
**.VIFIBN90.ShimIPC1.ipcAddress 	 	= "2"

**.VIFIBN89.ShimIPC1.difName 		    = "Shim90To89"
**.VIFIBN89.ShimIPC1.ipcAddress 	 	= "1"
**.VIFIBN90.ShimIPC0.difName 	        = "Shim90To89"
**.VIFIBN90.ShimIPC0.ipcAddress 	 	= "2"


**.VIFIBN88.ShimIPC1.difName 	        = "Shim88To103"
**.VIFIBN88.ShimIPC1.ipcAddress 	 	= "1"
**.VIFIBN103.ShimIPC0.difName 		= "Shim88To103"
**.VIFIBN103.ShimIPC0.ipcAddress 	 	= "2"

**.VIFIBN113.ShimIPC1.difName 	    = "Shim113To103"
**.VIFIBN113.ShimIPC1.ipcAddress 	 	= "1"
**.VIFIBN103.ShimIPC1.difName 		= "Shim113To103"
**.VIFIBN103.ShimIPC1.ipcAddress 	 	= "2"

**.VIFIBN113.ShimIPC0.difName 	    = "Shim113To95"
**.VIFIBN113.ShimIPC0.ipcAddress 	 	= "1"
**.VIFIBN95.ShimIPC1.difName  		= "Shim113To95"
**.VIFIBN95.ShimIPC1.ipcAddress 	 	= "2"

**.VIFIBN96.ShimIPC0.difName 	        = "Shim96To95"
**.VIFIBN96.ShimIPC0.ipcAddress 	 	= "1"
**.VIFIBN95.ShimIPC0.difName  		= "Shim96To95"
**.VIFIBN95.ShimIPC0.ipcAddress 	 	= "2"

**.VIFIBN96.ShimIPC1.difName 	        = "Shim96To94"
**.VIFIBN96.ShimIPC1.ipcAddress 	 	= "1"
**.VIFIBN94.ShimIPC0.difName  		= "Shim96To94"
**.VIFIBN94.ShimIPC0.ipcAddress 	 	= "2"

**.VIFIBN109.ShimIPC0.difName 	    = "Shim109To94"
**.VIFIBN109.ShimIPC0.ipcAddress 	 	= "1"
**.VIFIBN94.ShimIPC1.difName  		= "Shim109To94"
**.VIFIBN94.ShimIPC1.ipcAddress 	 	= "2"

**.VIFIBN109.ShimIPC1.difName 	    = "Shim109To110"
**.VIFIBN109.ShimIPC1.ipcAddress 	 	= "1"
**.VIFIBN110.ShimIPC1.difName  		= "Shim109To110"
**.VIFIBN110.ShimIPC1.ipcAddress 	 	= "2"

**.VIFIBN106.ShimIPC1.difName 	    = "Shim106To110"
**.VIFIBN106.ShimIPC1.ipcAddress 	 	= "1"
**.VIFIBN110.ShimIPC0.difName  		= "Shim106To110"
**.VIFIBN110.ShimIPC0.ipcAddress 	 	= "2"

**.VIFIBN106.ShimIPC0.difName 	    = "Shim106To108"
**.VIFIBN106.ShimIPC0.ipcAddress 	 	= "1"
**.VIFIBN108.ShimIPC0.difName  		= "Shim106To108"
**.VIFIBN108.ShimIPC0.ipcAddress 	 	= "2"

**.VIFIBN107.ShimIPC1.difName 	    = "Shim107To108"
**.VIFIBN107.ShimIPC1.ipcAddress 	 	= "1"
**.VIFIBN108.ShimIPC1.difName  		= "Shim107To108"
**.VIFIBN108.ShimIPC1.ipcAddress 	 	= "2"

**.VIFIBN107.ShimIPC0.difName 	    = "Shim107To97"
**.VIFIBN107.ShimIPC0.ipcAddress 	 	= "1"
**.VIFIBN97.ShimIPC1.difName  		= "Shim107To97"
**.VIFIBN97.ShimIPC1.ipcAddress 	 	= "2"

**.VIFIBN105.ShimIPC0.difName 	    = "Shim105To97"
**.VIFIBN105.ShimIPC0.ipcAddress 	 	= "1"
**.VIFIBN97.ShimIPC0.difName  		= "Shim105To97"
**.VIFIBN97.ShimIPC0.ipcAddress 	 	= "2"

**.VIFIBN105.ShimIPC1.difName 	    = "Shim105To102"
**.VIFIBN105.ShimIPC1.ipcAddress 	 	= "1"
**.VIFIBN102.ShimIPC1.difName  		= "Shim105To102"
**.VIFIBN102.ShimIPC1.ipcAddress 	 	= "2"

**.VIFIBN116.ShimIPC1.difName 	    = "Shim116To102"
**.VIFIBN116.ShimIPC1.ipcAddress 	 	= "1"
**.VIFIBN102.ShimIPC0.difName  		= "Shim116To102"
**.VIFIBN102.ShimIPC0.ipcAddress 	 	= "2"

**.VIFIBN116.ShimIPC0.difName 	    = "Shim116To99"
**.VIFIBN116.ShimIPC0.ipcAddress 	 	= "1"
**.VIFIBN99.ShimIPC0.difName  		= "Shim116To99"
**.VIFIBN99.ShimIPC0.ipcAddress 	 	= "2"

**.VIFIBN99.ShimIPC1.difName 			= "Shim99To120"
**.VIFIBN99.ShimIPC1.ipcAddress 	 	= "1"
**.VIFIBN120.ShimIPC4.difName 		= "Shim99To120"
**.VIFIBN120.ShimIPC4.ipcAddress 	 	= "2"

#Intergroups connections Shims

**.VIFIBN120.ShimIPC6.difName 		= "Shim120To123"
**.VIFIBN120.ShimIPC6.ipcAddress 	 	= "1"
**.VIFIBN123.ShimIPC5.difName 		= "Shim120To123"
**.VIFIBN123.ShimIPC5.ipcAddress 	 	= "2"

**.VIFIBN120.ShimIPC2.difName 		= "Shim120To121"
**.VIFIBN120.ShimIPC2.ipcAddress 	 	= "1"
**.VIFIBN121.ShimIPC2.difName 		= "Shim120To121"
**.VIFIBN121.ShimIPC2.ipcAddress 	 	= "2"

**.VIFIBN120.ShimIPC3.difName 		= "Shim120To122"
**.VIFIBN120.ShimIPC3.ipcAddress 	 	= "1"
**.VIFIBN122.ShimIPC4.difName 		= "Shim120To122"
**.VIFIBN122.ShimIPC4.ipcAddress 	 	= "2"

**.VIFIBN121.ShimIPC3.difName 		= "Shim121To122"
**.VIFIBN121.ShimIPC3.ipcAddress 	 	= "1"
**.VIFIBN122.ShimIPC3.difName 		= "Shim121To122"
**.VIFIBN122.ShimIPC3.ipcAddress 	 	= "2"

**.VIFIBN121.ShimIPC4.difName 		= "Shim121To123"
**.VIFIBN121.ShimIPC4.ipcAddress 	 	= "1"
**.VIFIBN123.ShimIPC3.difName 		= "Shim121To123"
**.VIFIBN123.ShimIPC3.ipcAddress 	 	= "2"


**.VIFIBN123.ShimIPC2.difName 		= "Shim122To123"
**.VIFIBN123.ShimIPC2.ipcAddress 	 	= "1"
**.VIFIBN122.ShimIPC2.difName 		= "Shim122To123"
**.VIFIBN122.ShimIPC2.ipcAddress 	 	= "2"


#G1 DIF
**.VIFIBN120.GIPC.difName 			= "G1DIF"
**.VIFIBN120.GIPC.ipcAddress 	 	= "120"

**.VIFIBN1.GIPC.difName 			= "G1DIF"
**.VIFIBN1.GIPC.ipcAddress 	 	    = "1"
**.VIFIBN2.GIPC.difName 			= "G1DIF"
**.VIFIBN2.GIPC.ipcAddress 	 	    = "2"
**.VIFIBN3.GIPC.difName 			= "G1DIF"
**.VIFIBN3.GIPC.ipcAddress 	 	    = "3"
**.VIFIBN4.GIPC.difName 			= "G1DIF"
**.VIFIBN4.GIPC.ipcAddress 	 	    = "4"
**.VIFIBN5.GIPC.difName 			= "G1DIF"
**.VIFIBN5.GIPC.ipcAddress 	 	    = "5"
**.VIFIBN6.GIPC.difName 			= "G1DIF"
**.VIFIBN6.GIPC.ipcAddress 	 	    = "6"
**.VIFIBN7.GIPC.difName 			= "G1DIF"
**.VIFIBN7.GIPC.ipcAddress 	 	    = "7"
**.VIFIBN8.GIPC.difName 			= "G1DIF"
**.VIFIBN8.GIPC.ipcAddress 	 	    = "8"
**.VIFIBN9.GIPC.difName 			= "G1DIF"
**.VIFIBN9.GIPC.ipcAddress 	 	    = "9"
**.VIFIBN10.GIPC.difName 			= "G1DIF"
**.VIFIBN10.GIPC.ipcAddress 	 	    = "10"
**.VIFIBN11.GIPC.difName 			= "G1DIF"
**.VIFIBN11.GIPC.ipcAddress 	 	    = "11"
**.VIFIBN12.GIPC.difName 			= "G1DIF"
**.VIFIBN12.GIPC.ipcAddress 	 	    = "12"
**.VIFIBN13.GIPC.difName 			= "G1DIF"
**.VIFIBN13.GIPC.ipcAddress 	 	    = "13"
**.VIFIBN14.GIPC.difName 			= "G1DIF"
**.VIFIBN14.GIPC.ipcAddress 	 	    = "14"
**.VIFIBN15.GIPC.difName 			= "G1DIF"
**.VIFIBN15.GIPC.ipcAddress 	 	    = "15"
**.VIFIBN16.GIPC.difName 			= "G1DIF"
**.VIFIBN16.GIPC.ipcAddress 	 	    = "16"
**.VIFIBN17.GIPC.difName 			= "G1DIF"
**.VIFIBN17.GIPC.ipcAddress 	 	    = "17"
**.VIFIBN18.GIPC.difName 			= "G1DIF"
**.VIFIBN18.GIPC.ipcAddress 	 	    = "18"
**.VIFIBN19.GIPC.difName 			= "G1DIF"
**.VIFIBN19.GIPC.ipcAddress 	 	    = "19"
**.VIFIBN20.GIPC.difName 			= "G1DIF"
**.VIFIBN20.GIPC.ipcAddress 	 	    = "20"
**.VIFIBN21.GIPC.difName 			= "G1DIF"
**.VIFIBN21.GIPC.ipcAddress 	 	    = "21"
**.VIFIBN22.GIPC.difName 			= "G1DIF"
**.VIFIBN22.GIPC.ipcAddress 	 	    = "22"
**.VIFIBN23.GIPC.difName 			= "G1DIF"
**.VIFIBN23.GIPC.ipcAddress 	 	    = "23"
**.VIFIBN24.GIPC.difName 			= "G1DIF"
**.VIFIBN24.GIPC.ipcAddress 	 	    = "24"
**.VIFIBN25.GIPC.difName 			= "G1DIF"
**.VIFIBN25.GIPC.ipcAddress 	 	    = "25"
**.VIFIBN26.GIPC.difName 			= "G1DIF"
**.VIFIBN26.GIPC.ipcAddress 	 	    = "26"
**.VIFIBN27.GIPC.difName 			= "G1DIF"
**.VIFIBN27.GIPC.ipcAddress 	 	    = "27"
**.VIFIBN28.GIPC.difName 			= "G1DIF"
**.VIFIBN28.GIPC.ipcAddress 	 	    = "28"
**.VIFIBN29.GIPC.difName 			= "G1DIF"