#--gaixas1 : Not mine, error AEPing - need AE bug to be solved
#----------- N-1 flows not allocated, so routing not working
#----------- move to playground or ask for them to allocate flows??

[General] 
network = DistributedCloudsLS
sim-time-limit = 5min
seed-set = ${runnumber}
debug-on-errors = true


#
# Appliction entities naming:
#
**.VIFIBN1.AP.apName	= "App1"
**.VIFIBN2.AP.apName 	= "App2"
**.VIFIBN5.AP.apName	= "App5"
**.VIFIBN6.AP.apName 	= "App6"
**.VIFIBN7.AP.apName 	= "App7"
**.VIFIBN8.AP.apName 	= "App8"
**.VIFIBN11.AP.apName 	= "App11"
**.VIFIBN12.AP.apName 	= "App12"
**.VIFIBN90.AP.apName 	= "App90"
**.VIFIBN39.AP.apName 	= "App39"
**.VIFIBN74.AP.apName 	= "App74"
**.VIFIBNGL1.AP.apName 	= "AppGL1"
**.VIFIBNGL2.AP.apName 	= "AppGL2"
**.VIFIBNGL3.AP.apName	= "AppGL3"
**.VIFIBNGL4.AP.apName 	= "AppGL4"
**.apType 			= "APPing"

# RMT Forwarding policies
**.VIFIBN*.TenantIPC.relayAndMux.ForwardingPolicyName = "SimpleTable"
**.VIFIBN*.GIPC.relayAndMux.ForwardingPolicyName = "SimpleTable"

**.VIFIBNGL*.IGIPC[*].relayAndMux.ForwardingPolicyName = "SimpleTable"

# forwarding generator policies
**.VIFIBN*.TenantIPC.resourceAllocator.pdufgPolicyName = "SimpleGenerator"
**.VIFIBN*.GIPC.resourceAllocator.pdufgPolicyName = "SimpleGenerator"

**.VIFIBNGL*.IGIPC[*].resourceAllocator.pdufgPolicyName = "SimpleGenerator"

# Routing policies
**.VIFIBN*.TenantIPC.routingPolicyName = "SimpleDV"
**.VIFIBN*.GIPC.routingPolicyName = "SimpleDV"

**.VIFIBNGL*.IGIPC[*].routingPolicyName = "SimpleDV"

#
# Server instances addressing:
#
# G1 Shims:
**.VIFIBN1.ShimIPC[0].difName 			= "Shim1To17"
**.VIFIBN1.ShimIPC[0].ipcAddress 	 	= "1"
**.VIFIBN17.ShimIPC[1].difName 			= "Shim1To17"
**.VIFIBN17.ShimIPC[1].ipcAddress 	 	= "2"

**.VIFIBN1.ShimIPC[1].difName 			= "Shim1ToGL1"
**.VIFIBN1.ShimIPC[1].ipcAddress 	 	= "1"
**.VIFIBNGL1.ShimIPC[0].difName 		= "Shim1ToGL1"
**.VIFIBNGL1.ShimIPC[0].ipcAddress 	 	= "2"

**.VIFIBN14.ShimIPC[0].difName 			= "Shim14ToGL1"
**.VIFIBN14.ShimIPC[0].ipcAddress 	 	= "1"
**.VIFIBNGL1.ShimIPC[5].difName 		= "Shim14ToGL1"
**.VIFIBNGL1.ShimIPC[5].ipcAddress 	 	= "2"

**.VIFIBN2.ShimIPC[1].difName 			= "Shim2ToGL1"
**.VIFIBN2.ShimIPC[1].ipcAddress 	 	= "1"
**.VIFIBNGL1.ShimIPC[1].difName 		= "Shim2ToGL1"
**.VIFIBNGL1.ShimIPC[1].ipcAddress 	 	= "2"

**.VIFIBN24.ShimIPC[0].difName 			= "Shim25To24"
**.VIFIBN24.ShimIPC[0].ipcAddress 	 	= "1"
**.VIFIBN25.ShimIPC[0].difName 			= "Shim25To24"
**.VIFIBN25.ShimIPC[0].ipcAddress 	 	= "2"

**.VIFIBN24.ShimIPC[1].difName 			= "Shim14To24"
**.VIFIBN24.ShimIPC[1].ipcAddress 	 	= "1"
**.VIFIBN14.ShimIPC[1].difName 			= "Shim14To24"
**.VIFIBN14.ShimIPC[1].ipcAddress 	 	= "2"

**.VIFIBN25.ShimIPC[1].difName 			= "Shim25To11"
**.VIFIBN25.ShimIPC[1].ipcAddress 	 	= "1"
**.VIFIBN11.ShimIPC[0].difName 			= "Shim25To11"
**.VIFIBN11.ShimIPC[0].ipcAddress 	 	= "2"

**.VIFIBN6.ShimIPC[0].difName 			= "Shim6To11"
**.VIFIBN6.ShimIPC[0].ipcAddress 	 	= "1"
**.VIFIBN11.ShimIPC[1].difName 			= "Shim6To11"
**.VIFIBN11.ShimIPC[1].ipcAddress 	 	= "2"

**.VIFIBN15.ShimIPC[0].difName 			= "Shim15To17"
**.VIFIBN15.ShimIPC[0].ipcAddress 	 	= "1"
**.VIFIBN17.ShimIPC[0].difName 			= "Shim15To17"
**.VIFIBN17.ShimIPC[0].ipcAddress 	 	= "2"

**.VIFIBN15.ShimIPC[1].difName 			= "Shim15To18"
**.VIFIBN15.ShimIPC[1].ipcAddress 	 	= "1"
**.VIFIBN18.ShimIPC[1].difName 			= "Shim15To18"
**.VIFIBN18.ShimIPC[1].ipcAddress 	 	= "2"

**.VIFIBN10.ShimIPC[1].difName 			= "Shim10To18"
**.VIFIBN10.ShimIPC[1].ipcAddress 	 	= "1"
**.VIFIBN18.ShimIPC[0].difName 			= "Shim10To18"
**.VIFIBN18.ShimIPC[0].ipcAddress 	 	= "2"

**.VIFIBN8.ShimIPC[1].difName 			= "Shim8To10"
**.VIFIBN8.ShimIPC[1].ipcAddress 	 	= "1"
**.VIFIBN10.ShimIPC[0].difName 			= "Shim8To10"
**.VIFIBN10.ShimIPC[0].ipcAddress 	 	= "2"

**.VIFIBN8.ShimIPC[0].difName 			= "Shim8To9"
**.VIFIBN8.ShimIPC[0].ipcAddress 	 	= "1"
**.VIFIBN9.ShimIPC[0].difName 			= "Shim8To9"
**.VIFIBN9.ShimIPC[0].ipcAddress 	 	= "2"

**.VIFIBN9.ShimIPC[1].difName 			= "Shim6To9"
**.VIFIBN9.ShimIPC[1].ipcAddress 	 	= "1"
**.VIFIBN6.ShimIPC[1].difName 			= "Shim6To9"
**.VIFIBN6.ShimIPC[1].ipcAddress 	 	= "2"

**.VIFIBN2.ShimIPC[0].difName 			= "Shim2To3"
**.VIFIBN2.ShimIPC[0].ipcAddress 	 	= "1"
**.VIFIBN3.ShimIPC[0].difName 			= "Shim2To3"
**.VIFIBN3.ShimIPC[0].ipcAddress 	 	= "2"

**.VIFIBN4.ShimIPC[0].difName 			= "Shim4To3"
**.VIFIBN4.ShimIPC[0].ipcAddress 	 	= "1"
**.VIFIBN3.ShimIPC[1].difName 			= "Shim4To3"
**.VIFIBN3.ShimIPC[1].ipcAddress 	 	= "2"

**.VIFIBN4.ShimIPC[1].difName 			= "Shim4To5"
**.VIFIBN4.ShimIPC[1].ipcAddress 	 	= "1"
**.VIFIBN5.ShimIPC[0].difName 			= "Shim4To5"
**.VIFIBN5.ShimIPC[0].ipcAddress 	 	= "2"

**.VIFIBN7.ShimIPC[0].difName 			= "Shim7To5"
**.VIFIBN7.ShimIPC[0].ipcAddress 	 	= "1"
**.VIFIBN5.ShimIPC[1].difName 			= "Shim7To5"
**.VIFIBN5.ShimIPC[1].ipcAddress 	 	= "2"

**.VIFIBN7.ShimIPC[1].difName 			= "Shim7To22"
**.VIFIBN7.ShimIPC[1].ipcAddress 	 	= "1"
**.VIFIBN22.ShimIPC[0].difName 			= "Shim7To22"
**.VIFIBN22.ShimIPC[0].ipcAddress 	 	= "2"

**.VIFIBN23.ShimIPC[0].difName 			= "Shim23To22"
**.VIFIBN23.ShimIPC[0].ipcAddress 	 	= "1"
**.VIFIBN22.ShimIPC[1].difName 			= "Shim23To22"
**.VIFIBN22.ShimIPC[1].ipcAddress 	 	= "2"

**.VIFIBN23.ShimIPC[1].difName 			= "Shim23To29"
**.VIFIBN23.ShimIPC[1].ipcAddress 	 	= "1"
**.VIFIBN29.ShimIPC[1].difName 			= "Shim23To29"
**.VIFIBN29.ShimIPC[1].ipcAddress 	 	= "2"

**.VIFIBN19.ShimIPC[1].difName 			= "Shim19To29"
**.VIFIBN19.ShimIPC[1].ipcAddress 	 	= "1"
**.VIFIBN29.ShimIPC[0].difName 			= "Shim19To29"
**.VIFIBN29.ShimIPC[0].ipcAddress 	 	= "2"

**.VIFIBN19.ShimIPC[0].difName 			= "Shim19To21"
**.VIFIBN19.ShimIPC[0].ipcAddress 	 	= "1"
**.VIFIBN21.ShimIPC[0].difName 			= "Shim19To21"
**.VIFIBN21.ShimIPC[0].ipcAddress 	 	= "2"

**.VIFIBN20.ShimIPC[1].difName 			= "Shim20To21"
**.VIFIBN20.ShimIPC[1].ipcAddress 	 	= "1"
**.VIFIBN21.ShimIPC[1].difName 			= "Shim20To21"
**.VIFIBN21.ShimIPC[1].ipcAddress 	 	= "2"

**.VIFIBN20.ShimIPC[0].difName 			= "Shim20To26"
**.VIFIBN20.ShimIPC[0].ipcAddress 	 	= "1"
**.VIFIBN26.ShimIPC[1].difName 			= "Shim20To26"
**.VIFIBN26.ShimIPC[1].ipcAddress 	 	= "2"

**.VIFIBN13.ShimIPC[1].difName 			= "Shim13To26"
**.VIFIBN13.ShimIPC[1].ipcAddress 	 	= "1"
**.VIFIBN26.ShimIPC[0].difName 			= "Shim13To26"
**.VIFIBN26.ShimIPC[0].ipcAddress 	 	= "2"

**.VIFIBN13.ShimIPC[0].difName 			= "Shim13To12"
**.VIFIBN13.ShimIPC[0].ipcAddress 	 	= "1"
**.VIFIBN12.ShimIPC[0].difName 			= "Shim13To12"
**.VIFIBN12.ShimIPC[0].ipcAddress 	 	= "2"

**.VIFIBN27.ShimIPC[0].difName 			= "Shim27To12"
**.VIFIBN27.ShimIPC[0].ipcAddress 	 	= "1"
**.VIFIBN12.ShimIPC[1].difName 			= "Shim27To12"
**.VIFIBN12.ShimIPC[1].ipcAddress 	 	= "2"

**.VIFIBN27.ShimIPC[1].difName 			= "Shim27To16"
**.VIFIBN27.ShimIPC[1].ipcAddress 	 	= "1"
**.VIFIBN16.ShimIPC[0].difName 			= "Shim27To16"
**.VIFIBN16.ShimIPC[0].ipcAddress 	 	= "2"

**.VIFIBN28.ShimIPC[0].difName 			= "Shim28To16"
**.VIFIBN28.ShimIPC[0].ipcAddress 	 	= "1"
**.VIFIBN16.ShimIPC[1].difName 			= "Shim28To16"
**.VIFIBN16.ShimIPC[1].ipcAddress 	 	= "2"

**.VIFIBN28.ShimIPC[1].difName 			= "Shim28To36"
**.VIFIBN28.ShimIPC[1].ipcAddress 	 	= "1"
**.VIFIBN36.ShimIPC[1].difName 			= "Shim28To36"
**.VIFIBN36.ShimIPC[1].ipcAddress 	 	= "2"


# G2 Shims:
**.VIFIBNGL2.ShimIPC[0].difName 		= "Shim30ToGL2"
**.VIFIBNGL2.ShimIPC[0].ipcAddress 	 	= "1"
**.VIFIBN30.ShimIPC[0].difName 		= "Shim30ToGL2"
**.VIFIBN30.ShimIPC[0].ipcAddress 	 	= "2"

**.VIFIBNGL2.ShimIPC[1].difName 		= "Shim31ToGL2"
**.VIFIBNGL2.ShimIPC[1].ipcAddress 	 	= "1"
**.VIFIBN31.ShimIPC[0].difName 		= "Shim31ToGL2"
**.VIFIBN31.ShimIPC[0].ipcAddress 	 	= "2"

**.VIFIBNGL2.ShimIPC[6].difName 		= "Shim41ToGL2"
**.VIFIBNGL2.ShimIPC[6].ipcAddress 	 	= "1"
**.VIFIBN41.ShimIPC[0].difName 		= "Shim41ToGL2"
**.VIFIBN41.ShimIPC[0].ipcAddress 	 	= "2"

**.VIFIBNGL2.ShimIPC[5].difName 		= "Shim47ToGL2"
**.VIFIBNGL2.ShimIPC[5].ipcAddress 	 	= "1"
**.VIFIBN47.ShimIPC[1].difName 		= "Shim47ToGL2"
**.VIFIBN47.ShimIPC[1].ipcAddress 	 	= "2"

**.VIFIBN56.ShimIPC[1].difName 			= "Shim41To56"
**.VIFIBN56.ShimIPC[1].ipcAddress 	 	= "2"
**.VIFIBN41.ShimIPC[1].difName 		= "Shim41To56"
**.VIFIBN41.ShimIPC[1].ipcAddress 	 	= "2"

**.VIFIBN52.ShimIPC[0].difName 			= "Shim52To56"
**.VIFIBN52.ShimIPC[0].ipcAddress 	 	= "1"
**.VIFIBN56.ShimIPC[0].difName 			= "Shim52To56"
**.VIFIBN56.ShimIPC[0].ipcAddress 	 	= "2"

**.VIFIBN52.ShimIPC[1].difName 			= "Shim52To51"
**.VIFIBN52.ShimIPC[1].ipcAddress 	 	= "1"
**.VIFIBN51.ShimIPC[1].difName 			= "Shim52To51"
**.VIFIBN51.ShimIPC[1].ipcAddress 	 	= "2"

**.VIFIBN36.ShimIPC[0].difName 			= "Shim36To51"
**.VIFIBN36.ShimIPC[0].ipcAddress 	 	= "1"
**.VIFIBN51.ShimIPC[0].difName 			= "Shim36To51"
**.VIFIBN51.ShimIPC[0].ipcAddress 	 	= "2"

**.VIFIBN31.ShimIPC[1].difName 		= "Shim31To32"
**.VIFIBN31.ShimIPC[1].ipcAddress 	 	= "1"
**.VIFIBN32.ShimIPC[0].difName 			= "Shim31To32"
**.VIFIBN32.ShimIPC[0].ipcAddress 	 	= "2"

**.VIFIBN33.ShimIPC[0].difName 		= "Shim33To32"
**.VIFIBN33.ShimIPC[0].ipcAddress 	 	= "1"
**.VIFIBN32.ShimIPC[1].difName 			= "Shim33To32"
**.VIFIBN32.ShimIPC[1].ipcAddress 	 	= "2"

**.VIFIBN33.ShimIPC[1].difName 		= "Shim33To34"
**.VIFIBN33.ShimIPC[1].ipcAddress 	 	= "1"
**.VIFIBN34.ShimIPC[0].difName 			= "Shim33To34"
**.VIFIBN34.ShimIPC[0].ipcAddress 	 	= "2"

**.VIFIBN35.ShimIPC[0].difName 		= "Shim35To34"
**.VIFIBN35.ShimIPC[0].ipcAddress 	 	= "1"
**.VIFIBN34.ShimIPC[1].difName 			= "Shim35To34"
**.VIFIBN34.ShimIPC[1].ipcAddress 	 	= "2"

**.VIFIBN35.ShimIPC[1].difName 		= "Shim35To40"
**.VIFIBN35.ShimIPC[1].ipcAddress 	 	= "1"
**.VIFIBN40.ShimIPC[1].difName 			= "Shim35To40"
**.VIFIBN40.ShimIPC[1].ipcAddress 	 	= "2"

**.VIFIBN54.ShimIPC[1].difName 		= "Shim54To40"
**.VIFIBN54.ShimIPC[1].ipcAddress 	 	= "1"
**.VIFIBN40.ShimIPC[0].difName 			= "Shim54To40"
**.VIFIBN40.ShimIPC[0].ipcAddress 	 	= "2"

**.VIFIBN54.ShimIPC[0].difName 		= "Shim54To53"
**.VIFIBN54.ShimIPC[0].ipcAddress 	 	= "1"
**.VIFIBN53.ShimIPC[0].difName 			= "Shim54To53"
**.VIFIBN53.ShimIPC[0].ipcAddress 	 	= "2"

**.VIFIBN46.ShimIPC[1].difName 		= "Shim46To53"
**.VIFIBN46.ShimIPC[1].ipcAddress 	 	= "1"
**.VIFIBN53.ShimIPC[1].difName 			= "Shim46To53"
**.VIFIBN53.ShimIPC[1].ipcAddress 	 	= "2"

**.VIFIBN46.ShimIPC[0].difName 		= "Shim46To43"
**.VIFIBN46.ShimIPC[0].ipcAddress 	 	= "1"
**.VIFIBN43.ShimIPC[0].difName 			= "Shim46To43"
**.VIFIBN43.ShimIPC[0].ipcAddress 	 	= "2"

**.VIFIBN66.ShimIPC[0].difName 		= "Shim66To43"
**.VIFIBN66.ShimIPC[0].ipcAddress 	 	= "1"
**.VIFIBN43.ShimIPC[1].difName 			= "Shim66To43"
**.VIFIBN43.ShimIPC[1].ipcAddress 	 	= "2"

**.VIFIBN47.ShimIPC[0].difName 		= "Shim47To39"
**.VIFIBN47.ShimIPC[0].ipcAddress 	 	= "1"
**.VIFIBN39.ShimIPC[1].difName 			= "Shim47To39"
**.VIFIBN39.ShimIPC[1].ipcAddress 	 	= "2"

**.VIFIBN37.ShimIPC[1].difName 		= "Shim37To39"
**.VIFIBN37.ShimIPC[1].ipcAddress 	 	= "1"
**.VIFIBN39.ShimIPC[0].difName 			= "Shim37To39"
**.VIFIBN39.ShimIPC[0].ipcAddress 	 	= "2"

**.VIFIBN37.ShimIPC[0].difName 		= "Shim37To38"
**.VIFIBN37.ShimIPC[0].ipcAddress 	 	= "1"
**.VIFIBN38.ShimIPC[0].difName 			= "Shim37To38"
**.VIFIBN38.ShimIPC[0].ipcAddress 	 	= "2"

**.VIFIBN45.ShimIPC[0].difName 		= "Shim45To38"
**.VIFIBN45.ShimIPC[0].ipcAddress 	 	= "1"
**.VIFIBN38.ShimIPC[1].difName 			= "Shim45To38"
**.VIFIBN38.ShimIPC[1].ipcAddress 	 	= "2"

**.VIFIBN45.ShimIPC[1].difName 		= "Shim45To55"
**.VIFIBN45.ShimIPC[1].ipcAddress 	 	= "1"
**.VIFIBN55.ShimIPC[0].difName 			= "Shim45To55"
**.VIFIBN55.ShimIPC[0].ipcAddress 	 	= "2"

**.VIFIBN49.ShimIPC[1].difName 		= "Shim49To55"
**.VIFIBN49.ShimIPC[1].ipcAddress 	 	= "1"
**.VIFIBN55.ShimIPC[1].difName 			= "Shim49To55"
**.VIFIBN55.ShimIPC[1].ipcAddress 	 	= "2"

**.VIFIBN49.ShimIPC[0].difName 		= "Shim49To57"
**.VIFIBN49.ShimIPC[0].ipcAddress 	 	= "1"
**.VIFIBN57.ShimIPC[1].difName 			= "Shim49To57"
**.VIFIBN57.ShimIPC[1].ipcAddress 	 	= "2"

**.VIFIBN42.ShimIPC[0].difName 		= "Shim42To57"
**.VIFIBN42.ShimIPC[0].ipcAddress 	 	= "1"
**.VIFIBN57.ShimIPC[0].difName 			= "Shim42To57"
**.VIFIBN57.ShimIPC[0].ipcAddress 	 	= "2"

**.VIFIBN42.ShimIPC[1].difName 		= "Shim42To50"
**.VIFIBN42.ShimIPC[1].ipcAddress 	 	= "1"
**.VIFIBN50.ShimIPC[0].difName 			= "Shim42To50"
**.VIFIBN50.ShimIPC[0].ipcAddress 	 	= "2"

**.VIFIBN72.ShimIPC[1].difName 		= "Shim72To50"
**.VIFIBN72.ShimIPC[1].ipcAddress 	 	= "1"
**.VIFIBN50.ShimIPC[1].difName 			= "Shim72To50"
**.VIFIBN50.ShimIPC[1].ipcAddress 	 	= "2"

**.VIFIBN44.ShimIPC[1].difName 		= "Shim30To44"
**.VIFIBN44.ShimIPC[1].ipcAddress 	 	= "1"
**.VIFIBN30.ShimIPC[1].difName 			= "Shim30To44"
**.VIFIBN30.ShimIPC[1].ipcAddress 	 	= "2"

**.VIFIBN44.ShimIPC[0].difName 		= "Shim48To44"
**.VIFIBN44.ShimIPC[0].ipcAddress 	 	= "1"
**.VIFIBN48.ShimIPC[0].difName 			= "Shim48To44"
**.VIFIBN48.ShimIPC[0].ipcAddress 	 	= "2"

**.VIFIBN58.ShimIPC[0].difName 		= "Shim48To58"
**.VIFIBN58.ShimIPC[0].ipcAddress 	 	= "1"
**.VIFIBN48.ShimIPC[1].difName 			= "Shim48To58"
**.VIFIBN48.ShimIPC[1].ipcAddress 	 	= "2"

**.VIFIBN58.ShimIPC[1].difName 		= "Shim48ToGL3"
**.VIFIBN58.ShimIPC[1].ipcAddress 	 	= "1"
**.VIFIBNGL3.ShimIPC[5].difName 	= "Shim48ToGL3"
**.VIFIBNGL3.ShimIPC[5].ipcAddress 	 	= "2"

# G3 Shims:
**.VIFIBNGL3.ShimIPC[0].difName 		= "Shim59ToGL3"
**.VIFIBNGL3.ShimIPC[0].ipcAddress 	 	= "2"
**.VIFIBN59.ShimIPC[0].difName 			= "Shim59ToGL3"
**.VIFIBN59.ShimIPC[0].ipcAddress 	 	= "1"

**.VIFIBNGL3.ShimIPC[1].difName 		= "Shim60ToGL3"
**.VIFIBNGL3.ShimIPC[1].ipcAddress 	 	= "2"
**.VIFIBN60.ShimIPC[0].difName 			= "Shim60ToGL3"
**.VIFIBN60.ShimIPC[0].ipcAddress 	 	= "1"

**.VIFIBNGL3.ShimIPC[6].difName 		= "Shim85ToGL3"
**.VIFIBNGL3.ShimIPC[6].ipcAddress 	 	= "2"
**.VIFIBN85.ShimIPC[0].difName 			= "Shim85ToGL3"
**.VIFIBN85.ShimIPC[0].ipcAddress 	 	= "1"

**.VIFIBN75.ShimIPC[0].difName 		= "Shim60To75"
**.VIFIBN75.ShimIPC[0].ipcAddress 	 	= "1"
**.VIFIBN60.ShimIPC[1].difName 			= "Shim60To75"
**.VIFIBN60.ShimIPC[1].ipcAddress 	 	= "2"

**.VIFIBN75.ShimIPC[1].difName 		= "Shim82To75"
**.VIFIBN75.ShimIPC[1].ipcAddress 	 	= "1"
**.VIFIBN82.ShimIPC[1].difName 			= "Shim82To75"
**.VIFIBN82.ShimIPC[1].ipcAddress 	 	= "2"

**.VIFIBN83.ShimIPC[0].difName 		= "Shim82To83"
**.VIFIBN83.ShimIPC[0].ipcAddress 	 	= "1"
**.VIFIBN82.ShimIPC[0].difName 			= "Shim82To83"
**.VIFIBN82.ShimIPC[0].ipcAddress 	 	= "2"

**.VIFIBN83.ShimIPC[1].difName 		= "Shim69To83"
**.VIFIBN83.ShimIPC[1].ipcAddress 	 	= "1"
**.VIFIBN69.ShimIPC[0].difName 			= "Shim69To83"
**.VIFIBN69.ShimIPC[0].ipcAddress 	 	= "2"

**.VIFIBN64.ShimIPC[1].difName 		= "Shim69To64"
**.VIFIBN64.ShimIPC[1].ipcAddress 	 	= "1"
**.VIFIBN69.ShimIPC[1].difName 			= "Shim69To64"
**.VIFIBN69.ShimIPC[1].ipcAddress 	 	= "2"

**.VIFIBN64.ShimIPC[0].difName 		= "Shim63To64"
**.VIFIBN64.ShimIPC[0].ipcAddress 	 	= "1"
**.VIFIBN63.ShimIPC[1].difName 			= "Shim63To64"
**.VIFIBN63.ShimIPC[1].ipcAddress 	 	= "2"

**.VIFIBN65.ShimIPC[0].difName 		= "Shim63To65"
**.VIFIBN65.ShimIPC[0].ipcAddress 	 	= "1"
**.VIFIBN63.ShimIPC[0].difName 			= "Shim63To65"
**.VIFIBN63.ShimIPC[0].ipcAddress 	 	= "2"

**.VIFIBN65.ShimIPC[1].difName 		= "Shim80To65"
**.VIFIBN65.ShimIPC[1].ipcAddress 	 	= "1"
**.VIFIBN80.ShimIPC[0].difName 			= "Shim80To65"
**.VIFIBN80.ShimIPC[0].ipcAddress 	 	= "2"

**.VIFIBN81.ShimIPC[1].difName 		= "Shim80To81"
**.VIFIBN81.ShimIPC[1].ipcAddress 	 	= "1"
**.VIFIBN80.ShimIPC[1].difName 			= "Shim80To81"
**.VIFIBN80.ShimIPC[1].ipcAddress 	 	= "2"

**.VIFIBN81.ShimIPC[0].difName 		= "Shim77To81"
**.VIFIBN81.ShimIPC[0].ipcAddress 	 	= "1"
**.VIFIBN77.ShimIPC[1].difName 			= "Shim77To81"
**.VIFIBN77.ShimIPC[1].ipcAddress 	 	= "2"

**.VIFIBN73.ShimIPC[0].difName 		= "Shim77To73"
**.VIFIBN73.ShimIPC[0].ipcAddress 	 	= "1"
**.VIFIBN77.ShimIPC[0].difName 			= "Shim77To73"
**.VIFIBN77.ShimIPC[0].ipcAddress 	 	= "2"

**.VIFIBN73.ShimIPC[1].difName 		    = "Shim76To73"
**.VIFIBN73.ShimIPC[1].ipcAddress 	 	= "1"
**.VIFIBN76.ShimIPC[1].difName 			= "Shim76To73"
**.VIFIBN76.ShimIPC[1].ipcAddress 	 	= "2"

**.VIFIBN68.ShimIPC[1].difName 		    = "Shim76To68"
**.VIFIBN68.ShimIPC[1].ipcAddress 	 	= "1"
**.VIFIBN76.ShimIPC[0].difName 			= "Shim76To68"
**.VIFIBN76.ShimIPC[0].ipcAddress 	 	= "2"

**.VIFIBN68.ShimIPC[0].difName 		    = "Shim114To68"
**.VIFIBN68.ShimIPC[0].ipcAddress 	 	= "1"
**.VIFIBN114.ShimIPC[0].difName 			= "Shim114To68"
**.VIFIBN114.ShimIPC[0].ipcAddress 	 	= "2"

**.VIFIBN59.ShimIPC[1].difName 			= "Shim59To74"
**.VIFIBN59.ShimIPC[1].ipcAddress 	 	= "1"
**.VIFIBN74.ShimIPC[0].difName 			= "Shim59To74"
**.VIFIBN74.ShimIPC[0].ipcAddress 	 	= "2"

**.VIFIBN84.ShimIPC[0].difName 			= "Shim84To74"
**.VIFIBN84.ShimIPC[0].ipcAddress 	 	= "1"
**.VIFIBN74.ShimIPC[1].difName 			= "Shim84To74"
**.VIFIBN74.ShimIPC[1].ipcAddress 	 	= "2"

**.VIFIBN84.ShimIPC[1].difName 			= "Shim84To71"
**.VIFIBN84.ShimIPC[1].ipcAddress 	 	= "1"
**.VIFIBN71.ShimIPC[1].difName 			= "Shim84To71"
**.VIFIBN71.ShimIPC[1].ipcAddress 	 	= "2"

**.VIFIBN86.ShimIPC[0].difName 			= "Shim86To71"
**.VIFIBN86.ShimIPC[0].ipcAddress 	 	= "1"
**.VIFIBN71.ShimIPC[0].difName 			= "Shim86To71"
**.VIFIBN71.ShimIPC[0].ipcAddress 	 	= "2"

**.VIFIBN86.ShimIPC[1].difName 			= "Shim86To78"
**.VIFIBN86.ShimIPC[1].ipcAddress 	 	= "1"
**.VIFIBN78.ShimIPC[0].difName 			= "Shim86To78"
**.VIFIBN78.ShimIPC[0].ipcAddress 	 	= "2"

**.VIFIBN79.ShimIPC[1].difName 			= "Shim79To78"
**.VIFIBN79.ShimIPC[1].ipcAddress 	 	= "1"
**.VIFIBN78.ShimIPC[1].difName 			= "Shim79To78"
**.VIFIBN78.ShimIPC[1].ipcAddress 	 	= "2"

**.VIFIBN79.ShimIPC[0].difName 			= "Shim79To87"
**.VIFIBN79.ShimIPC[0].ipcAddress 	 	= "1"
**.VIFIBN87.ShimIPC[0].difName 			= "Shim79To87"
**.VIFIBN87.ShimIPC[0].ipcAddress 	 	= "2"

**.VIFIBN67.ShimIPC[0].difName 			= "Shim67To87"
**.VIFIBN67.ShimIPC[0].ipcAddress 	 	= "1"
**.VIFIBN87.ShimIPC[1].difName 			= "Shim67To87"
**.VIFIBN87.ShimIPC[1].ipcAddress 	 	= "2"

**.VIFIBN67.ShimIPC[1].difName 			= "Shim67To72"
**.VIFIBN67.ShimIPC[1].ipcAddress 	 	= "1"
**.VIFIBN72.ShimIPC[0].difName 			= "Shim67To72"
**.VIFIBN72.ShimIPC[0].ipcAddress 	 	= "2"

**.VIFIBN85.ShimIPC[1].difName 			= "Shim85To70"
**.VIFIBN85.ShimIPC[1].ipcAddress 	 	= "1"
**.VIFIBN70.ShimIPC[1].difName 			= "Shim85To70"
**.VIFIBN70.ShimIPC[1].ipcAddress 	 	= "2"

**.VIFIBN61.ShimIPC[1].difName 			= "Shim61To70"
**.VIFIBN61.ShimIPC[1].ipcAddress 	 	= "1"
**.VIFIBN70.ShimIPC[0].difName 			= "Shim61To70"
**.VIFIBN70.ShimIPC[0].ipcAddress 	 	= "2"

**.VIFIBN61.ShimIPC[0].difName 			= "Shim61To62"
**.VIFIBN61.ShimIPC[0].ipcAddress 	 	= "1"
**.VIFIBN62.ShimIPC[0].difName 			= "Shim61To62"
**.VIFIBN62.ShimIPC[0].ipcAddress 	 	= "2"

**.VIFIBN66.ShimIPC[1].difName 			= "Shim66To62"
**.VIFIBN66.ShimIPC[1].ipcAddress 	 	= "1"
**.VIFIBN62.ShimIPC[1].difName 			= "Shim66To62"
**.VIFIBN62.ShimIPC[1].ipcAddress 	 	= "2"



# G4 Shims:
**.VIFIBNGL4.ShimIPC[6].difName 		= "Shim114ToGL4"
**.VIFIBNGL4.ShimIPC[6].ipcAddress 	 	= "1"
**.VIFIBN114.ShimIPC[1].difName 	    = "Shim114ToGL4"
**.VIFIBN114.ShimIPC[1].ipcAddress 	 	= "2"

**.VIFIBNGL4.ShimIPC[0].difName 		= "Shim88ToGL4"
**.VIFIBNGL4.ShimIPC[0].ipcAddress 	 	= "1"
**.VIFIBN88.ShimIPC[0].difName 	        = "Shim88ToGL4"
**.VIFIBN88.ShimIPC[0].ipcAddress 	 	= "2"

**.VIFIBNGL4.ShimIPC[1].difName 		= "Shim89ToGL4"
**.VIFIBNGL4.ShimIPC[1].ipcAddress 	 	= "1"
**.VIFIBN89.ShimIPC[0].difName 	        = "Shim89ToGL4"
**.VIFIBN89.ShimIPC[0].ipcAddress 	 	= "2"

**.VIFIBNGL4.ShimIPC[4].difName 		= "Shim100ToGL4"
**.VIFIBNGL4.ShimIPC[4].ipcAddress 	 	= "1"
**.VIFIBN100.ShimIPC[1].difName 	    = "Shim100ToGL4"
**.VIFIBN100.ShimIPC[1].ipcAddress 	 	= "2"


**.VIFIBN115.ShimIPC[0].difName 		= "Shim100To115"
**.VIFIBN115.ShimIPC[0].ipcAddress 	 	= "1"
**.VIFIBN100.ShimIPC[0].difName 	    = "Shim100To115"
**.VIFIBN100.ShimIPC[0].ipcAddress 	 	= "2"

**.VIFIBN115.ShimIPC[1].difName 		= "Shim101To115"
**.VIFIBN115.ShimIPC[1].ipcAddress 	 	= "1"
**.VIFIBN101.ShimIPC[1].difName 	    = "Shim101To115"
**.VIFIBN101.ShimIPC[1].ipcAddress 	 	= "2"

**.VIFIBN104.ShimIPC[0].difName 		= "Shim101To104"
**.VIFIBN104.ShimIPC[0].ipcAddress 	 	= "1"
**.VIFIBN101.ShimIPC[0].difName 	    = "Shim101To104"
**.VIFIBN101.ShimIPC[0].ipcAddress 	 	= "2"

**.VIFIBN104.ShimIPC[1].difName 		= "Shim111To104"
**.VIFIBN104.ShimIPC[1].ipcAddress 	 	= "1"
**.VIFIBN111.ShimIPC[1].difName 	    = "Shim111To104"
**.VIFIBN111.ShimIPC[1].ipcAddress 	 	= "2"

**.VIFIBN112.ShimIPC[0].difName 		= "Shim111To112"
**.VIFIBN112.ShimIPC[0].ipcAddress 	 	= "1"
**.VIFIBN111.ShimIPC[0].difName 	    = "Shim111To112"
**.VIFIBN111.ShimIPC[0].ipcAddress 	 	= "2"

**.VIFIBN112.ShimIPC[1].difName 		= "Shim98To112"
**.VIFIBN112.ShimIPC[1].ipcAddress 	 	= "1"
**.VIFIBN98.ShimIPC[0].difName 	        = "Shim98To112"
**.VIFIBN98.ShimIPC[0].ipcAddress 	 	= "2"

**.VIFIBN93.ShimIPC[1].difName 		    = "Shim98To93"
**.VIFIBN93.ShimIPC[1].ipcAddress 	 	= "1"
**.VIFIBN98.ShimIPC[1].difName 	        = "Shim98To93"
**.VIFIBN98.ShimIPC[1].ipcAddress 	 	= "2"

**.VIFIBN93.ShimIPC[0].difName 		    = "Shim92To93"
**.VIFIBN93.ShimIPC[0].ipcAddress 	 	= "1"
**.VIFIBN92.ShimIPC[1].difName 	        = "Shim92To93"
**.VIFIBN92.ShimIPC[1].ipcAddress 	 	= "2"

**.VIFIBN91.ShimIPC[1].difName 		    = "Shim92To91"
**.VIFIBN91.ShimIPC[1].ipcAddress 	 	= "1"
**.VIFIBN92.ShimIPC[0].difName 	        = "Shim92To91"
**.VIFIBN92.ShimIPC[0].ipcAddress 	 	= "2"

**.VIFIBN91.ShimIPC[0].difName 		    = "Shim90To91"
**.VIFIBN91.ShimIPC[0].ipcAddress 	 	= "1"
**.VIFIBN90.ShimIPC[1].difName 	        = "Shim90To91"
**.VIFIBN90.ShimIPC[1].ipcAddress 	 	= "2"

**.VIFIBN89.ShimIPC[1].difName 		    = "Shim90To89"
**.VIFIBN89.ShimIPC[1].ipcAddress 	 	= "1"
**.VIFIBN90.ShimIPC[0].difName 	        = "Shim90To89"
**.VIFIBN90.ShimIPC[0].ipcAddress 	 	= "2"


**.VIFIBN88.ShimIPC[1].difName 	        = "Shim88To103"
**.VIFIBN88.ShimIPC[1].ipcAddress 	 	= "1"
**.VIFIBN103.ShimIPC[0].difName 		= "Shim88To103"
**.VIFIBN103.ShimIPC[0].ipcAddress 	 	= "2"

**.VIFIBN113.ShimIPC[1].difName 	    = "Shim113To103"
**.VIFIBN113.ShimIPC[1].ipcAddress 	 	= "1"
**.VIFIBN103.ShimIPC[1].difName 		= "Shim113To103"
**.VIFIBN103.ShimIPC[1].ipcAddress 	 	= "2"

**.VIFIBN113.ShimIPC[0].difName 	    = "Shim113To95"
**.VIFIBN113.ShimIPC[0].ipcAddress 	 	= "1"
**.VIFIBN95.ShimIPC[1].difName  		= "Shim113To95"
**.VIFIBN95.ShimIPC[1].ipcAddress 	 	= "2"

**.VIFIBN96.ShimIPC[0].difName 	        = "Shim96To95"
**.VIFIBN96.ShimIPC[0].ipcAddress 	 	= "1"
**.VIFIBN95.ShimIPC[0].difName  		= "Shim96To95"
**.VIFIBN95.ShimIPC[0].ipcAddress 	 	= "2"

**.VIFIBN96.ShimIPC[1].difName 	        = "Shim96To94"
**.VIFIBN96.ShimIPC[1].ipcAddress 	 	= "1"
**.VIFIBN94.ShimIPC[0].difName  		= "Shim96To94"
**.VIFIBN94.ShimIPC[0].ipcAddress 	 	= "2"

**.VIFIBN109.ShimIPC[0].difName 	    = "Shim109To94"
**.VIFIBN109.ShimIPC[0].ipcAddress 	 	= "1"
**.VIFIBN94.ShimIPC[1].difName  		= "Shim109To94"
**.VIFIBN94.ShimIPC[1].ipcAddress 	 	= "2"

**.VIFIBN109.ShimIPC[1].difName 	    = "Shim109To110"
**.VIFIBN109.ShimIPC[1].ipcAddress 	 	= "1"
**.VIFIBN110.ShimIPC[1].difName  		= "Shim109To110"
**.VIFIBN110.ShimIPC[1].ipcAddress 	 	= "2"

**.VIFIBN106.ShimIPC[1].difName 	    = "Shim106To110"
**.VIFIBN106.ShimIPC[1].ipcAddress 	 	= "1"
**.VIFIBN110.ShimIPC[0].difName  		= "Shim106To110"
**.VIFIBN110.ShimIPC[0].ipcAddress 	 	= "2"

**.VIFIBN106.ShimIPC[0].difName 	    = "Shim106To108"
**.VIFIBN106.ShimIPC[0].ipcAddress 	 	= "1"
**.VIFIBN108.ShimIPC[0].difName  		= "Shim106To108"
**.VIFIBN108.ShimIPC[0].ipcAddress 	 	= "2"

**.VIFIBN107.ShimIPC[1].difName 	    = "Shim107To108"
**.VIFIBN107.ShimIPC[1].ipcAddress 	 	= "1"
**.VIFIBN108.ShimIPC[1].difName  		= "Shim107To108"
**.VIFIBN108.ShimIPC[1].ipcAddress 	 	= "2"

**.VIFIBN107.ShimIPC[0].difName 	    = "Shim107To97"
**.VIFIBN107.ShimIPC[0].ipcAddress 	 	= "1"
**.VIFIBN97.ShimIPC[1].difName  		= "Shim107To97"
**.VIFIBN97.ShimIPC[1].ipcAddress 	 	= "2"

**.VIFIBN105.ShimIPC[0].difName 	    = "Shim105To97"
**.VIFIBN105.ShimIPC[0].ipcAddress 	 	= "1"
**.VIFIBN97.ShimIPC[0].difName  		= "Shim105To97"
**.VIFIBN97.ShimIPC[0].ipcAddress 	 	= "2"

**.VIFIBN105.ShimIPC[1].difName 	    = "Shim105To102"
**.VIFIBN105.ShimIPC[1].ipcAddress 	 	= "1"
**.VIFIBN102.ShimIPC[1].difName  		= "Shim105To102"
**.VIFIBN102.ShimIPC[1].ipcAddress 	 	= "2"

**.VIFIBN116.ShimIPC[1].difName 	    = "Shim116To102"
**.VIFIBN116.ShimIPC[1].ipcAddress 	 	= "1"
**.VIFIBN102.ShimIPC[0].difName  		= "Shim116To102"
**.VIFIBN102.ShimIPC[0].ipcAddress 	 	= "2"

**.VIFIBN116.ShimIPC[0].difName 	    = "Shim116To99"
**.VIFIBN116.ShimIPC[0].ipcAddress 	 	= "1"
**.VIFIBN99.ShimIPC[0].difName  		= "Shim116To99"
**.VIFIBN99.ShimIPC[0].ipcAddress 	 	= "2"

**.VIFIBN99.ShimIPC[1].difName 			= "Shim99ToGL1"
**.VIFIBN99.ShimIPC[1].ipcAddress 	 	= "1"
**.VIFIBNGL1.ShimIPC[4].difName 		= "Shim99ToGL1"
**.VIFIBNGL1.ShimIPC[4].ipcAddress 	 	= "2"

#Intergroups connections Shims

**.VIFIBNGL1.ShimIPC[6].difName 		= "ShimGL1ToGL4"
**.VIFIBNGL1.ShimIPC[6].ipcAddress 	 	= "1"
**.VIFIBNGL4.ShimIPC[5].difName 		= "ShimGL1ToGL4"
**.VIFIBNGL4.ShimIPC[5].ipcAddress 	 	= "2"

**.VIFIBNGL1.ShimIPC[2].difName 		= "ShimGL1ToGL2"
**.VIFIBNGL1.ShimIPC[2].ipcAddress 	 	= "1"
**.VIFIBNGL2.ShimIPC[2].difName 		= "ShimGL1ToGL2"
**.VIFIBNGL2.ShimIPC[2].ipcAddress 	 	= "2"

**.VIFIBNGL1.ShimIPC[3].difName 		= "ShimGL1ToGL3"
**.VIFIBNGL1.ShimIPC[3].ipcAddress 	 	= "1"
**.VIFIBNGL3.ShimIPC[4].difName 		= "ShimGL1ToGL3"
**.VIFIBNGL3.ShimIPC[4].ipcAddress 	 	= "2"

**.VIFIBNGL2.ShimIPC[3].difName 		= "ShimGL2ToGL3"
**.VIFIBNGL2.ShimIPC[3].ipcAddress 	 	= "1"
**.VIFIBNGL3.ShimIPC[3].difName 		= "ShimGL2ToGL3"
**.VIFIBNGL3.ShimIPC[3].ipcAddress 	 	= "2"

**.VIFIBNGL2.ShimIPC[4].difName 		= "ShimGL2ToGL4"
**.VIFIBNGL2.ShimIPC[4].ipcAddress 	 	= "1"
**.VIFIBNGL4.ShimIPC[3].difName 		= "ShimGL2ToGL4"
**.VIFIBNGL4.ShimIPC[3].ipcAddress 	 	= "2"


**.VIFIBNGL4.ShimIPC[2].difName 		= "ShimGL3ToGL4"
**.VIFIBNGL4.ShimIPC[2].ipcAddress 	 	= "1"
**.VIFIBNGL3.ShimIPC[2].difName 		= "ShimGL3ToGL4"
**.VIFIBNGL3.ShimIPC[2].ipcAddress 	 	= "2"


#G1 DIF
**.VIFIBNGL1.GIPC.difName 			= "G1DIF"
**.VIFIBNGL1.GIPC.ipcAddress 	 	= "0"

**.VIFIBN1.GIPC.difName 			= "G1DIF"
**.VIFIBN1.GIPC.ipcAddress 	 	    = "1"
**.VIFIBN2.GIPC.difName 			= "G1DIF"
**.VIFIBN2.GIPC.ipcAddress 	 	    = "2"
**.VIFIBN3.GIPC.difName 			= "G1DIF"
**.VIFIBN3.GIPC.ipcAddress 	 	    = "3"
**.VIFIBN4.GIPC.difName 			= "G1DIF"
**.VIFIBN4.GIPC.ipcAddress 	 	    = "4"
**.VIFIBN5.GIPC.difName 			= "G1DIF"
**.VIFIBN5.GIPC.ipcAddress 	 	    = "5"
**.VIFIBN6.GIPC.difName 			= "G1DIF"
**.VIFIBN6.GIPC.ipcAddress 	 	    = "6"
**.VIFIBN7.GIPC.difName 			= "G1DIF"
**.VIFIBN7.GIPC.ipcAddress 	 	    = "7"
**.VIFIBN8.GIPC.difName 			= "G1DIF"
**.VIFIBN8.GIPC.ipcAddress 	 	    = "8"
**.VIFIBN9.GIPC.difName 			= "G1DIF"
**.VIFIBN9.GIPC.ipcAddress 	 	    = "9"
**.VIFIBN10.GIPC.difName 			= "G1DIF"
**.VIFIBN10.GIPC.ipcAddress 	 	    = "10"
**.VIFIBN11.GIPC.difName 			= "G1DIF"
**.VIFIBN11.GIPC.ipcAddress 	 	    = "11"
**.VIFIBN12.GIPC.difName 			= "G1DIF"
**.VIFIBN12.GIPC.ipcAddress 	 	    = "12"
**.VIFIBN13.GIPC.difName 			= "G1DIF"
**.VIFIBN13.GIPC.ipcAddress 	 	    = "13"
**.VIFIBN14.GIPC.difName 			= "G1DIF"
**.VIFIBN14.GIPC.ipcAddress 	 	    = "14"
**.VIFIBN15.GIPC.difName 			= "G1DIF"
**.VIFIBN15.GIPC.ipcAddress 	 	    = "15"
**.VIFIBN16.GIPC.difName 			= "G1DIF"
**.VIFIBN16.GIPC.ipcAddress 	 	    = "16"
**.VIFIBN17.GIPC.difName 			= "G1DIF"
**.VIFIBN17.GIPC.ipcAddress 	 	    = "17"
**.VIFIBN18.GIPC.difName 			= "G1DIF"
**.VIFIBN18.GIPC.ipcAddress 	 	    = "18"
**.VIFIBN19.GIPC.difName 			= "G1DIF"
**.VIFIBN19.GIPC.ipcAddress 	 	    = "19"
**.VIFIBN20.GIPC.difName 			= "G1DIF"
**.VIFIBN20.GIPC.ipcAddress 	 	    = "20"
**.VIFIBN21.GIPC.difName 			= "G1DIF"
**.VIFIBN21.GIPC.ipcAddress 	 	    = "21"
**.VIFIBN22.GIPC.difName 			= "G1DIF"
**.VIFIBN22.GIPC.ipcAddress 	 	    = "22"
**.VIFIBN23.GIPC.difName 			= "G1DIF"
**.VIFIBN23.GIPC.ipcAddress 	 	    = "23"
**.VIFIBN24.GIPC.difName 			= "G1DIF"
**.VIFIBN24.GIPC.ipcAddress 	 	    = "24"
**.VIFIBN25.GIPC.difName 			= "G1DIF"
**.VIFIBN25.GIPC.ipcAddress 	 	    = "25"
**.VIFIBN26.GIPC.difName 			= "G1DIF"
**.VIFIBN26.GIPC.ipcAddress 	 	    = "26"
**.VIFIBN27.GIPC.difName 			= "G1DIF"
**.VIFIBN27.GIPC.ipcAddress 	 	    = "27"
**.VIFIBN28.GIPC.difName 			= "G1DIF"
**.VIFIBN28.GIPC.ipcAddress 	 	    = "28"
**.VIFIBN29.GIPC.difName 			= "G1DIF"
**.VIFIBN29.GIPC.ipcAddress 	 	    = "29"


#G2 DIF
**.VIFIBNGL2.GIPC.difName 			= "G2DIF"
**.VIFIBNGL2.GIPC.ipcAddress 	    = "0"

**.VIFIBN30.GIPC.difName 			= "G2DIF"
**.VIFIBN30.GIPC.ipcAddress 	 	    = "30"
**.VIFIBN31.GIPC.difName 			= "G2DIF"
**.VIFIBN31.GIPC.ipcAddress 	 	    = "31"
**.VIFIBN32.GIPC.difName 			= "G2DIF"
**.VIFIBN32.GIPC.ipcAddress 	 	    = "32"
**.VIFIBN33.GIPC.difName 			= "G2DIF"
**.VIFIBN33.GIPC.ipcAddress 	 	    = "33"
**.VIFIBN34.GIPC.difName 			= "G2DIF"
**.VIFIBN34.GIPC.ipcAddress 	 	    = "34"
**.VIFIBN35.GIPC.difName 			= "G2DIF"
**.VIFIBN35.GIPC.ipcAddress 	 	    = "35"
**.VIFIBN36.GIPC.difName 			= "G2DIF"
**.VIFIBN36.GIPC.ipcAddress 	 	    = "36"
**.VIFIBN37.GIPC.difName 			= "G2DIF"
**.VIFIBN37.GIPC.ipcAddress 	 	    = "37"
**.VIFIBN38.GIPC.difName 			= "G2DIF"
**.VIFIBN38.GIPC.ipcAddress 	 	    = "38"
**.VIFIBN39.GIPC.difName 			= "G2DIF"
**.VIFIBN39.GIPC.ipcAddress 	 	    = "39"
**.VIFIBN40.GIPC.difName 			= "G2DIF"
**.VIFIBN40.GIPC.ipcAddress 	 	    = "40"
**.VIFIBN41.GIPC.difName 			= "G2DIF"
**.VIFIBN41.GIPC.ipcAddress 	 	    = "41"
**.VIFIBN42.GIPC.difName 			= "G2DIF"
**.VIFIBN42.GIPC.ipcAddress 	 	    = "42"
**.VIFIBN43.GIPC.difName 			= "G2DIF"
**.VIFIBN43.GIPC.ipcAddress 	 	    = "43"
**.VIFIBN44.GIPC.difName 			= "G2DIF"
**.VIFIBN44.GIPC.ipcAddress 	 	    = "44"
**.VIFIBN45.GIPC.difName 			= "G2DIF"
**.VIFIBN45.GIPC.ipcAddress 	 	    = "45"
**.VIFIBN46.GIPC.difName 			= "G2DIF"
**.VIFIBN46.GIPC.ipcAddress 	 	    = "46"
**.VIFIBN47.GIPC.difName 			= "G2DIF"
**.VIFIBN47.GIPC.ipcAddress 	 	    = "47"
**.VIFIBN48.GIPC.difName 			= "G2DIF"
**.VIFIBN48.GIPC.ipcAddress 	 	    = "48"
**.VIFIBN49.GIPC.difName 			= "G2DIF"
**.VIFIBN49.GIPC.ipcAddress 	 	    = "49"