[General]
network = net
**.pduTracing = false
**.scalar-recording = false
**.vector-recording = false

sim-time-limit = 150s

**.difAllocator.directory.configData = xmldoc("directory.xml", "DA")
**.ra.preallocation = xmldoc("connectionset.xml", "ConnectionSet")
**.flowAllocator.newFlowReqPolicyType = "MinComparer"
**.isSelfEnrolled = true

**.ipcProcess1.resourceAllocator.pdufgPolicyName = "StatGen"
**.ipcProcess1.relayAndMux.ForwardingPolicyName = "Q2FwdT"
**.ipcProcess1.routingPolicyName = "DummyRouting"
**.ipcProcess1.resourceAllocator.pduFwdGenerator.Q2T =  xmldoc("Q2T.xml", "Q2T")
**.N[*].ipcProcess1.resourceAllocator.pduFwdGenerator.TData \
	= xmldoc("FWDT.xml", "FWDT/Node[@id='"+string(ancestorIndex(3))+"']")

**.ipcProcess0[*].**.ra.qoscubesData = xmldoc("shimqoscube.xml", "QoSCubesSet")
**.ipcProcess1.**.ra.qoscubesData = xmldoc("qoscube.xml", "QoSCubesSet")
**.ipcProcess1.**.ra.qosReqData = xmldoc("qosreq.xml", "QoSReqSet")
**.ipcProcess2.**.ra.qoscubesData = xmldoc("qoscube.xml", "QoSCubesSet")
**.ipcProcess2.**.ra.qosReqData = xmldoc("qosreq.xml", "QoSReqSet")

**.ipcProcess1.difName = "Core"
**.ipcProcess2.difName = "Net"

**.N[*].**.ipcAddress = string(ancestorIndex(1))

**.N[*].ipcProcess1.relayAndMux.pduForwardingPolicy.printAtEnd = true

**.N[0].ipcProcess0[0].difName = "0-2"
**.N[0].ipcProcess0[1].difName = "0-4"
**.N[1].ipcProcess0[0].difName = "1-2"
**.N[1].ipcProcess0[1].difName = "1-3"
**.N[1].ipcProcess0[2].difName = "1-5"
**.N[2].ipcProcess0[0].difName = "0-2"
**.N[2].ipcProcess0[1].difName = "1-2"
**.N[2].ipcProcess0[2].difName = "2-4"
**.N[3].ipcProcess0[0].difName = "1-3"
**.N[3].ipcProcess0[1].difName = "3-4"
**.N[3].ipcProcess0[2].difName = "3-5"
**.N[4].ipcProcess0[0].difName = "0-4"
**.N[4].ipcProcess0[1].difName = "2-4"
**.N[4].ipcProcess0[2].difName = "3-4"
**.N[4].ipcProcess0[3].difName = "4-11"
**.N[5].ipcProcess0[0].difName = "1-5"
**.N[5].ipcProcess0[1].difName = "3-5"
**.N[5].ipcProcess0[2].difName = "5-6"
**.N[5].ipcProcess0[3].difName = "5-7"
**.N[6].ipcProcess0[0].difName = "5-6"
**.N[6].ipcProcess0[1].difName = "6-7"
**.N[6].ipcProcess0[2].difName = "6-8"
**.N[6].ipcProcess0[3].difName = "6-11"
**.N[6].ipcProcess0[4].difName = "6-16"
**.N[7].ipcProcess0[0].difName = "5-7"
**.N[7].ipcProcess0[1].difName = "6-7"
**.N[7].ipcProcess0[2].difName = "7-21"
**.N[8].ipcProcess0[0].difName = "6-8"
**.N[8].ipcProcess0[1].difName = "8-10"
**.N[8].ipcProcess0[2].difName = "8-15"
**.N[9].ipcProcess0[0].difName = "9-10"
**.N[9].ipcProcess0[1].difName = "9-12"
**.N[10].ipcProcess0[0].difName = "8-10"
**.N[10].ipcProcess0[1].difName = "9-10"
**.N[10].ipcProcess0[2].difName = "10-11"
**.N[10].ipcProcess0[3].difName = "10-15"
**.N[11].ipcProcess0[0].difName = "4-11"
**.N[11].ipcProcess0[1].difName = "6-11"
**.N[11].ipcProcess0[2].difName = "10-11"
**.N[12].ipcProcess0[0].difName = "9-12"
**.N[12].ipcProcess0[1].difName = "12-13"
**.N[12].ipcProcess0[2].difName = "12-14"
**.N[12].ipcProcess0[3].difName = "12-15"
**.N[13].ipcProcess0[0].difName = "12-13"
**.N[13].ipcProcess0[1].difName = "13-15"
**.N[13].ipcProcess0[2].difName = "13-16"
**.N[13].ipcProcess0[3].difName = "13-17"
**.N[14].ipcProcess0[0].difName = "12-14"
**.N[14].ipcProcess0[1].difName = "14-17"
**.N[15].ipcProcess0[0].difName = "8-15"
**.N[15].ipcProcess0[1].difName = "10-15"
**.N[15].ipcProcess0[2].difName = "12-15"
**.N[15].ipcProcess0[3].difName = "13-15"
**.N[16].ipcProcess0[0].difName = "6-16"
**.N[16].ipcProcess0[1].difName = "13-16"
**.N[16].ipcProcess0[2].difName = "16-20"
**.N[16].ipcProcess0[3].difName = "16-23"
**.N[17].ipcProcess0[0].difName = "13-17"
**.N[17].ipcProcess0[1].difName = "14-17"
**.N[17].ipcProcess0[2].difName = "17-19"
**.N[17].ipcProcess0[3].difName = "17-25"
**.N[18].ipcProcess0[0].difName = "18-19"
**.N[18].ipcProcess0[1].difName = "18-22"
**.N[18].ipcProcess0[2].difName = "18-25"
**.N[19].ipcProcess0[0].difName = "17-19"
**.N[19].ipcProcess0[1].difName = "18-19"
**.N[19].ipcProcess0[2].difName = "19-22"
**.N[20].ipcProcess0[0].difName = "16-20"
**.N[20].ipcProcess0[1].difName = "20-23"
**.N[20].ipcProcess0[2].difName = "20-25"
**.N[21].ipcProcess0[0].difName = "7-21"
**.N[21].ipcProcess0[1].difName = "21-23"
**.N[21].ipcProcess0[2].difName = "21-24"
**.N[22].ipcProcess0[0].difName = "18-22"
**.N[22].ipcProcess0[1].difName = "19-22"
**.N[23].ipcProcess0[0].difName = "16-23"
**.N[23].ipcProcess0[1].difName = "20-23"
**.N[23].ipcProcess0[2].difName = "21-23"
**.N[23].ipcProcess0[3].difName = "23-24"
**.N[24].ipcProcess0[0].difName = "21-24"
**.N[24].ipcProcess0[1].difName = "23-24"
**.N[25].ipcProcess0[0].difName = "17-25"
**.N[25].ipcProcess0[1].difName = "18-25"
**.N[25].ipcProcess0[2].difName = "20-25"

**.ipcProcess2.**.addrComparatorName = "InfectionComparator"

**.N[*].OFInj.nodes = "0 1 2 3 4 5 6 7 8 9 10 11 12 13 14 15 16 17 18 19 20 21 22 23 24 25"
**.N[*].OFInj.ini = -1

**.efcp.maxPDUSize = 100000B
**.efcp.maxSDUSize = 100000B

[Config DQ]
**.defaultThreshQLength = 5000
**.defaultMaxQLength =  5000
**.ipcProcess0[*].**.queueAllocPolicyName = "QueuePerNFlow"
**.ipcProcess0[*].**.queueIdGenName = "IDPerNFlow"
**.ipcProcess0[*].relayAndMux.maxQPolicyName = "TailDrop"
**.ipcProcess0[*].relayAndMux.qMonitorPolicyName = "IterativeStopMonitor"
**.ipcProcess0[*].relayAndMux.schedPolicyName = "IterativeScheduling"
**.ipcProcess1.**.queueAllocPolicyName = "QueuePerNQoS"
**.ipcProcess1.**.queueIdGenName = "IDPerNQoS"
**.ipcProcess1.relayAndMux.qMonitorPolicyName = "QTAMonitor"
**.ipcProcess1.relayAndMux.schedPolicyName = "QTASch"
**.ipcProcess1.relayAndMux.queueMonitorPolicy.shapersData = xmldoc("QTA.xml", "Configuration/shapers")
**.ipcProcess1.relayAndMux.queueMonitorPolicy.muxData = xmldoc("QTA.xml", "Configuration/mux")
