[General]
network = BigRandNet
seed-set = ${runnumber}
sim-time-limit = 5min

**.applicationEntity.aeType = "AEPing"
**.iae.aeName = "Ping"

[Config DistanceVector]
fingerprint = "483b-15fa"

# forwarding generator policies
**.H*.ipcProcess1.resourceAllocator.pdufgPolicyName = "SimpleGenerator"
**.R*.relayIpc.resourceAllocator.pdufgPolicyName = "SimpleGenerator"
# RMT Forwarding policies
**.H*.ipcProcess1.relayAndMux.ForwardingPolicyName = "SimpleTable"
**.R*.relayIpc.relayAndMux.ForwardingPolicyName = "SimpleTable"
# Routing policies
**.H*.ipcProcess1.routingPolicyName = "SimpleDV"
**.R*.relayIpc.routingPolicyName = "SimpleDV"


**.H93.AP[0].applicationEntity.iae.dstApName	= "App0Host26"
**.H93.AP[0].applicationEntity.iae.dstAeName 	= "Ping"
**.H93.AP[0].applicationEntity.iae.startAt 		= 310s
**.H93.AP[0].applicationEntity.iae.pingAt 		= 311s
**.H93.AP[0].applicationEntity.iae.rate 		= 5
**.H93.AP[0].applicationEntity.iae.stopAt 		= 316s

**.H*.nofAP=1
**.H0.AP[0].apName = "App0Host0"
**.H1.AP[0].apName = "App0Host1"
**.H2.AP[0].apName = "App0Host2"
**.H3.AP[0].apName = "App0Host3"
**.H4.AP[0].apName = "App0Host4"
**.H5.AP[0].apName = "App0Host5"
**.H6.AP[0].apName = "App0Host6"
**.H7.AP[0].apName = "App0Host7"
**.H8.AP[0].apName = "App0Host8"
**.H9.AP[0].apName = "App0Host9"
**.H10.AP[0].apName = "App0Host10"
**.H11.AP[0].apName = "App0Host11"
**.H12.AP[0].apName = "App0Host12"
**.H13.AP[0].apName = "App0Host13"
**.H14.AP[0].apName = "App0Host14"
**.H15.AP[0].apName = "App0Host15"
**.H16.AP[0].apName = "App0Host16"
**.H17.AP[0].apName = "App0Host17"
**.H18.AP[0].apName = "App0Host18"
**.H19.AP[0].apName = "App0Host19"
**.H20.AP[0].apName = "App0Host20"
**.H21.AP[0].apName = "App0Host21"
**.H22.AP[0].apName = "App0Host22"
**.H23.AP[0].apName = "App0Host23"
**.H24.AP[0].apName = "App0Host24"
**.H25.AP[0].apName = "App0Host25"
**.H26.AP[0].apName = "App0Host26"
**.H27.AP[0].apName = "App0Host27"
**.H28.AP[0].apName = "App0Host28"
**.H29.AP[0].apName = "App0Host29"
**.H30.AP[0].apName = "App0Host30"
**.H31.AP[0].apName = "App0Host31"
**.H32.AP[0].apName = "App0Host32"
**.H33.AP[0].apName = "App0Host33"
**.H34.AP[0].apName = "App0Host34"
**.H35.AP[0].apName = "App0Host35"
**.H36.AP[0].apName = "App0Host36"
**.H37.AP[0].apName = "App0Host37"
**.H38.AP[0].apName = "App0Host38"
**.H39.AP[0].apName = "App0Host39"
**.H40.AP[0].apName = "App0Host40"
**.H41.AP[0].apName = "App0Host41"
**.H42.AP[0].apName = "App0Host42"
**.H43.AP[0].apName = "App0Host43"
**.H44.AP[0].apName = "App0Host44"
**.H45.AP[0].apName = "App0Host45"
**.H46.AP[0].apName = "App0Host46"
**.H47.AP[0].apName = "App0Host47"
**.H48.AP[0].apName = "App0Host48"
**.H49.AP[0].apName = "App0Host49"
**.H50.AP[0].apName = "App0Host50"
**.H51.AP[0].apName = "App0Host51"
**.H52.AP[0].apName = "App0Host52"
**.H53.AP[0].apName = "App0Host53"
**.H54.AP[0].apName = "App0Host54"
**.H55.AP[0].apName = "App0Host55"
**.H56.AP[0].apName = "App0Host56"
**.H57.AP[0].apName = "App0Host57"
**.H58.AP[0].apName = "App0Host58"
**.H59.AP[0].apName = "App0Host59"
**.H60.AP[0].apName = "App0Host60"
**.H61.AP[0].apName = "App0Host61"
**.H62.AP[0].apName = "App0Host62"
**.H63.AP[0].apName = "App0Host63"
**.H64.AP[0].apName = "App0Host64"
**.H65.AP[0].apName = "App0Host65"
**.H66.AP[0].apName = "App0Host66"
**.H67.AP[0].apName = "App0Host67"
**.H68.AP[0].apName = "App0Host68"
**.H69.AP[0].apName = "App0Host69"
**.H70.AP[0].apName = "App0Host70"
**.H71.AP[0].apName = "App0Host71"
**.H72.AP[0].apName = "App0Host72"
**.H73.AP[0].apName = "App0Host73"
**.H74.AP[0].apName = "App0Host74"
**.H75.AP[0].apName = "App0Host75"
**.H76.AP[0].apName = "App0Host76"
**.H77.AP[0].apName = "App0Host77"
**.H78.AP[0].apName = "App0Host78"
**.H79.AP[0].apName = "App0Host79"
**.H80.AP[0].apName = "App0Host80"
**.H81.AP[0].apName = "App0Host81"
**.H82.AP[0].apName = "App0Host82"
**.H83.AP[0].apName = "App0Host83"
**.H84.AP[0].apName = "App0Host84"
**.H85.AP[0].apName = "App0Host85"
**.H86.AP[0].apName = "App0Host86"
**.H87.AP[0].apName = "App0Host87"
**.H88.AP[0].apName = "App0Host88"
**.H89.AP[0].apName = "App0Host89"
**.H90.AP[0].apName = "App0Host90"
**.H91.AP[0].apName = "App0Host91"
**.H92.AP[0].apName = "App0Host92"
**.H93.AP[0].apName = "App0Host93"
**.H94.AP[0].apName = "App0Host94"
**.H95.AP[0].apName = "App0Host95"
**.H96.AP[0].apName = "App0Host96"
**.H97.AP[0].apName = "App0Host97"
**.H98.AP[0].apName = "App0Host98"
**.H99.AP[0].apName = "App0Host99"
**.H100.AP[0].apName = "App0Host100"
**.H101.AP[0].apName = "App0Host101"
**.H102.AP[0].apName = "App0Host102"
**.H103.AP[0].apName = "App0Host103"
**.H104.AP[0].apName = "App0Host104"
**.H105.AP[0].apName = "App0Host105"
**.H106.AP[0].apName = "App0Host106"
**.H107.AP[0].apName = "App0Host107"
**.H108.AP[0].apName = "App0Host108"
**.H109.AP[0].apName = "App0Host109"
**.H110.AP[0].apName = "App0Host110"
**.H111.AP[0].apName = "App0Host111"
**.H112.AP[0].apName = "App0Host112"
**.H113.AP[0].apName = "App0Host113"
**.H114.AP[0].apName = "App0Host114"
**.H115.AP[0].apName = "App0Host115"
**.H116.AP[0].apName = "App0Host116"
**.H117.AP[0].apName = "App0Host117"
**.H118.AP[0].apName = "App0Host118"
**.H119.AP[0].apName = "App0Host119"
**.H120.AP[0].apName = "App0Host120"
**.H121.AP[0].apName = "App0Host121"
**.H122.AP[0].apName = "App0Host122"
**.H123.AP[0].apName = "App0Host123"
**.H124.AP[0].apName = "App0Host124"

**.H0.ipcProcess1.difName = "RandDIF"
**.H0.ipcProcess1.ipcAddress = "H0"
**.H0.ipcProcess0.difName = "Shim0To125"
**.H0.ipcProcess0.ipcAddress = "0"
**.R125.ipcProcess[0].difName = "Shim0To125"
**.R125.ipcProcess[0].ipcAddress = "125"

**.H1.ipcProcess1.difName = "RandDIF"
**.H1.ipcProcess1.ipcAddress = "H1"
**.H1.ipcProcess0.difName = "Shim1To126"
**.H1.ipcProcess0.ipcAddress = "1"
**.R126.ipcProcess[0].difName = "Shim1To126"
**.R126.ipcProcess[0].ipcAddress = "126"

**.H2.ipcProcess1.difName = "RandDIF"
**.H2.ipcProcess1.ipcAddress = "H2"
**.H2.ipcProcess0.difName = "Shim2To127"
**.H2.ipcProcess0.ipcAddress = "2"
**.R127.ipcProcess[0].difName = "Shim2To127"
**.R127.ipcProcess[0].ipcAddress = "127"

**.H3.ipcProcess1.difName = "RandDIF"
**.H3.ipcProcess1.ipcAddress = "H3"
**.H3.ipcProcess0.difName = "Shim3To128"
**.H3.ipcProcess0.ipcAddress = "3"
**.R128.ipcProcess[0].difName = "Shim3To128"
**.R128.ipcProcess[0].ipcAddress = "128"

**.H4.ipcProcess1.difName = "RandDIF"
**.H4.ipcProcess1.ipcAddress = "H4"
**.H4.ipcProcess0.difName = "Shim4To129"
**.H4.ipcProcess0.ipcAddress = "4"
**.R129.ipcProcess[0].difName = "Shim4To129"
**.R129.ipcProcess[0].ipcAddress = "129"

**.H5.ipcProcess1.difName = "RandDIF"
**.H5.ipcProcess1.ipcAddress = "H5"
**.H5.ipcProcess0.difName = "Shim5To130"
**.H5.ipcProcess0.ipcAddress = "5"
**.R130.ipcProcess[0].difName = "Shim5To130"
**.R130.ipcProcess[0].ipcAddress = "130"

**.H6.ipcProcess1.difName = "RandDIF"
**.H6.ipcProcess1.ipcAddress = "H6"
**.H6.ipcProcess0.difName = "Shim6To131"
**.H6.ipcProcess0.ipcAddress = "6"
**.R131.ipcProcess[0].difName = "Shim6To131"
**.R131.ipcProcess[0].ipcAddress = "131"

**.H7.ipcProcess1.difName = "RandDIF"
**.H7.ipcProcess1.ipcAddress = "H7"
**.H7.ipcProcess0.difName = "Shim7To132"
**.H7.ipcProcess0.ipcAddress = "7"
**.R132.ipcProcess[0].difName = "Shim7To132"
**.R132.ipcProcess[0].ipcAddress = "132"

**.H8.ipcProcess1.difName = "RandDIF"
**.H8.ipcProcess1.ipcAddress = "H8"
**.H8.ipcProcess0.difName = "Shim8To133"
**.H8.ipcProcess0.ipcAddress = "8"
**.R133.ipcProcess[0].difName = "Shim8To133"
**.R133.ipcProcess[0].ipcAddress = "133"

**.H9.ipcProcess1.difName = "RandDIF"
**.H9.ipcProcess1.ipcAddress = "H9"
**.H9.ipcProcess0.difName = "Shim9To134"
**.H9.ipcProcess0.ipcAddress = "9"
**.R134.ipcProcess[0].difName = "Shim9To134"
**.R134.ipcProcess[0].ipcAddress = "134"

**.H10.ipcProcess1.difName = "RandDIF"
**.H10.ipcProcess1.ipcAddress = "H10"
**.H10.ipcProcess0.difName = "Shim10To135"
**.H10.ipcProcess0.ipcAddress = "10"
**.R135.ipcProcess[0].difName = "Shim10To135"
**.R135.ipcProcess[0].ipcAddress = "135"

**.H11.ipcProcess1.difName = "RandDIF"
**.H11.ipcProcess1.ipcAddress = "H11"
**.H11.ipcProcess0.difName = "Shim11To136"
**.H11.ipcProcess0.ipcAddress = "11"
**.R136.ipcProcess[0].difName = "Shim11To136"
**.R136.ipcProcess[0].ipcAddress = "136"

**.H12.ipcProcess1.difName = "RandDIF"
**.H12.ipcProcess1.ipcAddress = "H12"
**.H12.ipcProcess0.difName = "Shim12To137"
**.H12.ipcProcess0.ipcAddress = "12"
**.R137.ipcProcess[0].difName = "Shim12To137"
**.R137.ipcProcess[0].ipcAddress = "137"

**.H13.ipcProcess1.difName = "RandDIF"
**.H13.ipcProcess1.ipcAddress = "H13"
**.H13.ipcProcess0.difName = "Shim13To138"
**.H13.ipcProcess0.ipcAddress = "13"
**.R138.ipcProcess[0].difName = "Shim13To138"
**.R138.ipcProcess[0].ipcAddress = "138"

**.H14.ipcProcess1.difName = "RandDIF"
**.H14.ipcProcess1.ipcAddress = "H14"
**.H14.ipcProcess0.difName = "Shim14To139"
**.H14.ipcProcess0.ipcAddress = "14"
**.R139.ipcProcess[0].difName = "Shim14To139"
**.R139.ipcProcess[0].ipcAddress = "139"

**.H15.ipcProcess1.difName = "RandDIF"
**.H15.ipcProcess1.ipcAddress = "H15"
**.H15.ipcProcess0.difName = "Shim15To140"
**.H15.ipcProcess0.ipcAddress = "15"
**.R140.ipcProcess[0].difName = "Shim15To140"
**.R140.ipcProcess[0].ipcAddress = "140"

**.H16.ipcProcess1.difName = "RandDIF"
**.H16.ipcProcess1.ipcAddress = "H16"
**.H16.ipcProcess0.difName = "Shim16To141"
**.H16.ipcProcess0.ipcAddress = "16"
**.R141.ipcProcess[0].difName = "Shim16To141"
**.R141.ipcProcess[0].ipcAddress = "141"

**.H17.ipcProcess1.difName = "RandDIF"
**.H17.ipcProcess1.ipcAddress = "H17"
**.H17.ipcProcess0.difName = "Shim17To142"
**.H17.ipcProcess0.ipcAddress = "17"
**.R142.ipcProcess[0].difName = "Shim17To142"
**.R142.ipcProcess[0].ipcAddress = "142"

**.H18.ipcProcess1.difName = "RandDIF"
**.H18.ipcProcess1.ipcAddress = "H18"
**.H18.ipcProcess0.difName = "Shim18To143"
**.H18.ipcProcess0.ipcAddress = "18"
**.R143.ipcProcess[0].difName = "Shim18To143"
**.R143.ipcProcess[0].ipcAddress = "143"

**.H19.ipcProcess1.difName = "RandDIF"
**.H19.ipcProcess1.ipcAddress = "H19"
**.H19.ipcProcess0.difName = "Shim19To144"
**.H19.ipcProcess0.ipcAddress = "19"
**.R144.ipcProcess[0].difName = "Shim19To144"
**.R144.ipcProcess[0].ipcAddress = "144"

**.H20.ipcProcess1.difName = "RandDIF"
**.H20.ipcProcess1.ipcAddress = "H20"
**.H20.ipcProcess0.difName = "Shim20To145"
**.H20.ipcProcess0.ipcAddress = "20"
**.R145.ipcProcess[0].difName = "Shim20To145"
**.R145.ipcProcess[0].ipcAddress = "145"

**.H21.ipcProcess1.difName = "RandDIF"
**.H21.ipcProcess1.ipcAddress = "H21"
**.H21.ipcProcess0.difName = "Shim21To146"
**.H21.ipcProcess0.ipcAddress = "21"
**.R146.ipcProcess[0].difName = "Shim21To146"
**.R146.ipcProcess[0].ipcAddress = "146"

**.H22.ipcProcess1.difName = "RandDIF"
**.H22.ipcProcess1.ipcAddress = "H22"
**.H22.ipcProcess0.difName = "Shim22To147"
**.H22.ipcProcess0.ipcAddress = "22"
**.R147.ipcProcess[0].difName = "Shim22To147"
**.R147.ipcProcess[0].ipcAddress = "147"

**.H23.ipcProcess1.difName = "RandDIF"
**.H23.ipcProcess1.ipcAddress = "H23"
**.H23.ipcProcess0.difName = "Shim23To148"
**.H23.ipcProcess0.ipcAddress = "23"
**.R148.ipcProcess[0].difName = "Shim23To148"
**.R148.ipcProcess[0].ipcAddress = "148"

**.H24.ipcProcess1.difName = "RandDIF"
**.H24.ipcProcess1.ipcAddress = "H24"
**.H24.ipcProcess0.difName = "Shim24To149"
**.H24.ipcProcess0.ipcAddress = "24"
**.R149.ipcProcess[0].difName = "Shim24To149"
**.R149.ipcProcess[0].ipcAddress = "149"

**.H25.ipcProcess1.difName = "RandDIF"
**.H25.ipcProcess1.ipcAddress = "H25"
**.H25.ipcProcess0.difName = "Shim25To150"
**.H25.ipcProcess0.ipcAddress = "25"
**.R150.ipcProcess[0].difName = "Shim25To150"
**.R150.ipcProcess[0].ipcAddress = "150"

**.H26.ipcProcess1.difName = "RandDIF"
**.H26.ipcProcess1.ipcAddress = "H26"
**.H26.ipcProcess0.difName = "Shim26To151"
**.H26.ipcProcess0.ipcAddress = "26"
**.R151.ipcProcess[0].difName = "Shim26To151"
**.R151.ipcProcess[0].ipcAddress = "151"

**.H27.ipcProcess1.difName = "RandDIF"
**.H27.ipcProcess1.ipcAddress = "H27"
**.H27.ipcProcess0.difName = "Shim27To152"
**.H27.ipcProcess0.ipcAddress = "27"
**.R152.ipcProcess[0].difName = "Shim27To152"
**.R152.ipcProcess[0].ipcAddress = "152"

**.H28.ipcProcess1.difName = "RandDIF"
**.H28.ipcProcess1.ipcAddress = "H28"
**.H28.ipcProcess0.difName = "Shim28To153"
**.H28.ipcProcess0.ipcAddress = "28"
**.R153.ipcProcess[0].difName = "Shim28To153"
**.R153.ipcProcess[0].ipcAddress = "153"

**.H29.ipcProcess1.difName = "RandDIF"
**.H29.ipcProcess1.ipcAddress = "H29"
**.H29.ipcProcess0.difName = "Shim29To154"
**.H29.ipcProcess0.ipcAddress = "29"
**.R154.ipcProcess[0].difName = "Shim29To154"
**.R154.ipcProcess[0].ipcAddress = "154"

**.H30.ipcProcess1.difName = "RandDIF"
**.H30.ipcProcess1.ipcAddress = "H30"
**.H30.ipcProcess0.difName = "Shim30To155"
**.H30.ipcProcess0.ipcAddress = "30"
**.R155.ipcProcess[0].difName = "Shim30To155"
**.R155.ipcProcess[0].ipcAddress = "155"

**.H31.ipcProcess1.difName = "RandDIF"
**.H31.ipcProcess1.ipcAddress = "H31"
**.H31.ipcProcess0.difName = "Shim31To156"
**.H31.ipcProcess0.ipcAddress = "31"
**.R156.ipcProcess[0].difName = "Shim31To156"
**.R156.ipcProcess[0].ipcAddress = "156"

**.H32.ipcProcess1.difName = "RandDIF"
**.H32.ipcProcess1.ipcAddress = "H32"
**.H32.ipcProcess0.difName = "Shim32To157"
**.H32.ipcProcess0.ipcAddress = "32"
**.R157.ipcProcess[0].difName = "Shim32To157"
**.R157.ipcProcess[0].ipcAddress = "157"

**.H33.ipcProcess1.difName = "RandDIF"
**.H33.ipcProcess1.ipcAddress = "H33"
**.H33.ipcProcess0.difName = "Shim33To158"
**.H33.ipcProcess0.ipcAddress = "33"
**.R158.ipcProcess[0].difName = "Shim33To158"
**.R158.ipcProcess[0].ipcAddress = "158"

**.H34.ipcProcess1.difName = "RandDIF"
**.H34.ipcProcess1.ipcAddress = "H34"
**.H34.ipcProcess0.difName = "Shim34To159"
**.H34.ipcProcess0.ipcAddress = "34"
**.R159.ipcProcess[0].difName = "Shim34To159"
**.R159.ipcProcess[0].ipcAddress = "159"

**.H35.ipcProcess1.difName = "RandDIF"
**.H35.ipcProcess1.ipcAddress = "H35"
**.H35.ipcProcess0.difName = "Shim35To160"
**.H35.ipcProcess0.ipcAddress = "35"
**.R160.ipcProcess[0].difName = "Shim35To160"
**.R160.ipcProcess[0].ipcAddress = "160"

**.H36.ipcProcess1.difName = "RandDIF"
**.H36.ipcProcess1.ipcAddress = "H36"
**.H36.ipcProcess0.difName = "Shim36To161"
**.H36.ipcProcess0.ipcAddress = "36"
**.R161.ipcProcess[0].difName = "Shim36To161"
**.R161.ipcProcess[0].ipcAddress = "161"

**.H37.ipcProcess1.difName = "RandDIF"
**.H37.ipcProcess1.ipcAddress = "H37"
**.H37.ipcProcess0.difName = "Shim37To162"
**.H37.ipcProcess0.ipcAddress = "37"
**.R162.ipcProcess[0].difName = "Shim37To162"
**.R162.ipcProcess[0].ipcAddress = "162"

**.H38.ipcProcess1.difName = "RandDIF"
**.H38.ipcProcess1.ipcAddress = "H38"
**.H38.ipcProcess0.difName = "Shim38To163"
**.H38.ipcProcess0.ipcAddress = "38"
**.R163.ipcProcess[0].difName = "Shim38To163"
**.R163.ipcProcess[0].ipcAddress = "163"

**.H39.ipcProcess1.difName = "RandDIF"
**.H39.ipcProcess1.ipcAddress = "H39"
**.H39.ipcProcess0.difName = "Shim39To164"
**.H39.ipcProcess0.ipcAddress = "39"
**.R164.ipcProcess[0].difName = "Shim39To164"
**.R164.ipcProcess[0].ipcAddress = "164"

**.H40.ipcProcess1.difName = "RandDIF"
**.H40.ipcProcess1.ipcAddress = "H40"
**.H40.ipcProcess0.difName = "Shim40To165"
**.H40.ipcProcess0.ipcAddress = "40"
**.R165.ipcProcess[0].difName = "Shim40To165"
**.R165.ipcProcess[0].ipcAddress = "165"

**.H41.ipcProcess1.difName = "RandDIF"
**.H41.ipcProcess1.ipcAddress = "H41"
**.H41.ipcProcess0.difName = "Shim41To166"
**.H41.ipcProcess0.ipcAddress = "41"
**.R166.ipcProcess[0].difName = "Shim41To166"
**.R166.ipcProcess[0].ipcAddress = "166"

**.H42.ipcProcess1.difName = "RandDIF"
**.H42.ipcProcess1.ipcAddress = "H42"
**.H42.ipcProcess0.difName = "Shim42To167"
**.H42.ipcProcess0.ipcAddress = "42"
**.R167.ipcProcess[0].difName = "Shim42To167"
**.R167.ipcProcess[0].ipcAddress = "167"

**.H43.ipcProcess1.difName = "RandDIF"
**.H43.ipcProcess1.ipcAddress = "H43"
**.H43.ipcProcess0.difName = "Shim43To168"
**.H43.ipcProcess0.ipcAddress = "43"
**.R168.ipcProcess[0].difName = "Shim43To168"
**.R168.ipcProcess[0].ipcAddress = "168"

**.H44.ipcProcess1.difName = "RandDIF"
**.H44.ipcProcess1.ipcAddress = "H44"
**.H44.ipcProcess0.difName = "Shim44To169"
**.H44.ipcProcess0.ipcAddress = "44"
**.R169.ipcProcess[0].difName = "Shim44To169"
**.R169.ipcProcess[0].ipcAddress = "169"

**.H45.ipcProcess1.difName = "RandDIF"
**.H45.ipcProcess1.ipcAddress = "H45"
**.H45.ipcProcess0.difName = "Shim45To170"
**.H45.ipcProcess0.ipcAddress = "45"
**.R170.ipcProcess[0].difName = "Shim45To170"
**.R170.ipcProcess[0].ipcAddress = "170"

**.H46.ipcProcess1.difName = "RandDIF"
**.H46.ipcProcess1.ipcAddress = "H46"
**.H46.ipcProcess0.difName = "Shim46To171"
**.H46.ipcProcess0.ipcAddress = "46"
**.R171.ipcProcess[0].difName = "Shim46To171"
**.R171.ipcProcess[0].ipcAddress = "171"

**.H47.ipcProcess1.difName = "RandDIF"
**.H47.ipcProcess1.ipcAddress = "H47"
**.H47.ipcProcess0.difName = "Shim47To172"
**.H47.ipcProcess0.ipcAddress = "47"
**.R172.ipcProcess[0].difName = "Shim47To172"
**.R172.ipcProcess[0].ipcAddress = "172"

**.H48.ipcProcess1.difName = "RandDIF"
**.H48.ipcProcess1.ipcAddress = "H48"
**.H48.ipcProcess0.difName = "Shim48To173"
**.H48.ipcProcess0.ipcAddress = "48"
**.R173.ipcProcess[0].difName = "Shim48To173"
**.R173.ipcProcess[0].ipcAddress = "173"

**.H49.ipcProcess1.difName = "RandDIF"
**.H49.ipcProcess1.ipcAddress = "H49"
**.H49.ipcProcess0.difName = "Shim49To174"
**.H49.ipcProcess0.ipcAddress = "49"
**.R174.ipcProcess[0].difName = "Shim49To174"
**.R174.ipcProcess[0].ipcAddress = "174"

**.H50.ipcProcess1.difName = "RandDIF"
**.H50.ipcProcess1.ipcAddress = "H50"
**.H50.ipcProcess0.difName = "Shim50To175"
**.H50.ipcProcess0.ipcAddress = "50"
**.R175.ipcProcess[0].difName = "Shim50To175"
**.R175.ipcProcess[0].ipcAddress = "175"

**.H51.ipcProcess1.difName = "RandDIF"
**.H51.ipcProcess1.ipcAddress = "H51"
**.H51.ipcProcess0.difName = "Shim51To176"
**.H51.ipcProcess0.ipcAddress = "51"
**.R176.ipcProcess[0].difName = "Shim51To176"
**.R176.ipcProcess[0].ipcAddress = "176"

**.H52.ipcProcess1.difName = "RandDIF"
**.H52.ipcProcess1.ipcAddress = "H52"
**.H52.ipcProcess0.difName = "Shim52To177"
**.H52.ipcProcess0.ipcAddress = "52"
**.R177.ipcProcess[0].difName = "Shim52To177"
**.R177.ipcProcess[0].ipcAddress = "177"

**.H53.ipcProcess1.difName = "RandDIF"
**.H53.ipcProcess1.ipcAddress = "H53"
**.H53.ipcProcess0.difName = "Shim53To178"
**.H53.ipcProcess0.ipcAddress = "53"
**.R178.ipcProcess[0].difName = "Shim53To178"
**.R178.ipcProcess[0].ipcAddress = "178"

**.H54.ipcProcess1.difName = "RandDIF"
**.H54.ipcProcess1.ipcAddress = "H54"
**.H54.ipcProcess0.difName = "Shim54To179"
**.H54.ipcProcess0.ipcAddress = "54"
**.R179.ipcProcess[0].difName = "Shim54To179"
**.R179.ipcProcess[0].ipcAddress = "179"

**.H55.ipcProcess1.difName = "RandDIF"
**.H55.ipcProcess1.ipcAddress = "H55"
**.H55.ipcProcess0.difName = "Shim55To180"
**.H55.ipcProcess0.ipcAddress = "55"
**.R180.ipcProcess[0].difName = "Shim55To180"
**.R180.ipcProcess[0].ipcAddress = "180"

**.H56.ipcProcess1.difName = "RandDIF"
**.H56.ipcProcess1.ipcAddress = "H56"
**.H56.ipcProcess0.difName = "Shim56To181"
**.H56.ipcProcess0.ipcAddress = "56"
**.R181.ipcProcess[0].difName = "Shim56To181"
**.R181.ipcProcess[0].ipcAddress = "181"

**.H57.ipcProcess1.difName = "RandDIF"
**.H57.ipcProcess1.ipcAddress = "H57"
**.H57.ipcProcess0.difName = "Shim57To182"
**.H57.ipcProcess0.ipcAddress = "57"
**.R182.ipcProcess[0].difName = "Shim57To182"
**.R182.ipcProcess[0].ipcAddress = "182"

**.H58.ipcProcess1.difName = "RandDIF"
**.H58.ipcProcess1.ipcAddress = "H58"
**.H58.ipcProcess0.difName = "Shim58To183"
**.H58.ipcProcess0.ipcAddress = "58"
**.R183.ipcProcess[0].difName = "Shim58To183"
**.R183.ipcProcess[0].ipcAddress = "183"

**.H59.ipcProcess1.difName = "RandDIF"
**.H59.ipcProcess1.ipcAddress = "H59"
**.H59.ipcProcess0.difName = "Shim59To184"
**.H59.ipcProcess0.ipcAddress = "59"
**.R184.ipcProcess[0].difName = "Shim59To184"
**.R184.ipcProcess[0].ipcAddress = "184"

**.H60.ipcProcess1.difName = "RandDIF"
**.H60.ipcProcess1.ipcAddress = "H60"
**.H60.ipcProcess0.difName = "Shim60To185"
**.H60.ipcProcess0.ipcAddress = "60"
**.R185.ipcProcess[0].difName = "Shim60To185"
**.R185.ipcProcess[0].ipcAddress = "185"

**.H61.ipcProcess1.difName = "RandDIF"
**.H61.ipcProcess1.ipcAddress = "H61"
**.H61.ipcProcess0.difName = "Shim61To186"
**.H61.ipcProcess0.ipcAddress = "61"
**.R186.ipcProcess[0].difName = "Shim61To186"
**.R186.ipcProcess[0].ipcAddress = "186"

**.H62.ipcProcess1.difName = "RandDIF"
**.H62.ipcProcess1.ipcAddress = "H62"
**.H62.ipcProcess0.difName = "Shim62To187"
**.H62.ipcProcess0.ipcAddress = "62"
**.R187.ipcProcess[0].difName = "Shim62To187"
**.R187.ipcProcess[0].ipcAddress = "187"

**.H63.ipcProcess1.difName = "RandDIF"
**.H63.ipcProcess1.ipcAddress = "H63"
**.H63.ipcProcess0.difName = "Shim63To188"
**.H63.ipcProcess0.ipcAddress = "63"
**.R188.ipcProcess[0].difName = "Shim63To188"
**.R188.ipcProcess[0].ipcAddress = "188"

**.H64.ipcProcess1.difName = "RandDIF"
**.H64.ipcProcess1.ipcAddress = "H64"
**.H64.ipcProcess0.difName = "Shim64To189"
**.H64.ipcProcess0.ipcAddress = "64"
**.R189.ipcProcess[0].difName = "Shim64To189"
**.R189.ipcProcess[0].ipcAddress = "189"

**.H65.ipcProcess1.difName = "RandDIF"
**.H65.ipcProcess1.ipcAddress = "H65"
**.H65.ipcProcess0.difName = "Shim65To190"
**.H65.ipcProcess0.ipcAddress = "65"
**.R190.ipcProcess[0].difName = "Shim65To190"
**.R190.ipcProcess[0].ipcAddress = "190"

**.H66.ipcProcess1.difName = "RandDIF"
**.H66.ipcProcess1.ipcAddress = "H66"
**.H66.ipcProcess0.difName = "Shim66To191"
**.H66.ipcProcess0.ipcAddress = "66"
**.R191.ipcProcess[0].difName = "Shim66To191"
**.R191.ipcProcess[0].ipcAddress = "191"

**.H67.ipcProcess1.difName = "RandDIF"
**.H67.ipcProcess1.ipcAddress = "H67"
**.H67.ipcProcess0.difName = "Shim67To192"
**.H67.ipcProcess0.ipcAddress = "67"
**.R192.ipcProcess[0].difName = "Shim67To192"
**.R192.ipcProcess[0].ipcAddress = "192"

**.H68.ipcProcess1.difName = "RandDIF"
**.H68.ipcProcess1.ipcAddress = "H68"
**.H68.ipcProcess0.difName = "Shim68To193"
**.H68.ipcProcess0.ipcAddress = "68"
**.R193.ipcProcess[0].difName = "Shim68To193"
**.R193.ipcProcess[0].ipcAddress = "193"

**.H69.ipcProcess1.difName = "RandDIF"
**.H69.ipcProcess1.ipcAddress = "H69"
**.H69.ipcProcess0.difName = "Shim69To194"
**.H69.ipcProcess0.ipcAddress = "69"
**.R194.ipcProcess[0].difName = "Shim69To194"
**.R194.ipcProcess[0].ipcAddress = "194"

**.H70.ipcProcess1.difName = "RandDIF"
**.H70.ipcProcess1.ipcAddress = "H70"
**.H70.ipcProcess0.difName = "Shim70To195"
**.H70.ipcProcess0.ipcAddress = "70"
**.R195.ipcProcess[0].difName = "Shim70To195"
**.R195.ipcProcess[0].ipcAddress = "195"

**.H71.ipcProcess1.difName = "RandDIF"
**.H71.ipcProcess1.ipcAddress = "H71"
**.H71.ipcProcess0.difName = "Shim71To196"
**.H71.ipcProcess0.ipcAddress = "71"
**.R196.ipcProcess[0].difName = "Shim71To196"
**.R196.ipcProcess[0].ipcAddress = "196"

**.H72.ipcProcess1.difName = "RandDIF"
**.H72.ipcProcess1.ipcAddress = "H72"
**.H72.ipcProcess0.difName = "Shim72To197"
**.H72.ipcProcess0.ipcAddress = "72"
**.R197.ipcProcess[0].difName = "Shim72To197"
**.R197.ipcProcess[0].ipcAddress = "197"

**.H73.ipcProcess1.difName = "RandDIF"
**.H73.ipcProcess1.ipcAddress = "H73"
**.H73.ipcProcess0.difName = "Shim73To198"
**.H73.ipcProcess0.ipcAddress = "73"
**.R198.ipcProcess[0].difName = "Shim73To198"
**.R198.ipcProcess[0].ipcAddress = "198"

**.H74.ipcProcess1.difName = "RandDIF"
**.H74.ipcProcess1.ipcAddress = "H74"
**.H74.ipcProcess0.difName = "Shim74To199"
**.H74.ipcProcess0.ipcAddress = "74"
**.R199.ipcProcess[0].difName = "Shim74To199"
**.R199.ipcProcess[0].ipcAddress = "199"

**.H75.ipcProcess1.difName = "RandDIF"
**.H75.ipcProcess1.ipcAddress = "H75"
**.H75.ipcProcess0.difName = "Shim75To125"
**.H75.ipcProcess0.ipcAddress = "75"
**.R125.ipcProcess[1].difName = "Shim75To125"
**.R125.ipcProcess[1].ipcAddress = "125"

**.H76.ipcProcess1.difName = "RandDIF"
**.H76.ipcProcess1.ipcAddress = "H76"
**.H76.ipcProcess0.difName = "Shim76To126"
**.H76.ipcProcess0.ipcAddress = "76"
**.R126.ipcProcess[1].difName = "Shim76To126"
**.R126.ipcProcess[1].ipcAddress = "126"

**.H77.ipcProcess1.difName = "RandDIF"
**.H77.ipcProcess1.ipcAddress = "H77"
**.H77.ipcProcess0.difName = "Shim77To127"
**.H77.ipcProcess0.ipcAddress = "77"
**.R127.ipcProcess[1].difName = "Shim77To127"
**.R127.ipcProcess[1].ipcAddress = "127"

**.H78.ipcProcess1.difName = "RandDIF"
**.H78.ipcProcess1.ipcAddress = "H78"
**.H78.ipcProcess0.difName = "Shim78To128"
**.H78.ipcProcess0.ipcAddress = "78"
**.R128.ipcProcess[1].difName = "Shim78To128"
**.R128.ipcProcess[1].ipcAddress = "128"

**.H79.ipcProcess1.difName = "RandDIF"
**.H79.ipcProcess1.ipcAddress = "H79"
**.H79.ipcProcess0.difName = "Shim79To129"
**.H79.ipcProcess0.ipcAddress = "79"
**.R129.ipcProcess[1].difName = "Shim79To129"
**.R129.ipcProcess[1].ipcAddress = "129"

**.H80.ipcProcess1.difName = "RandDIF"
**.H80.ipcProcess1.ipcAddress = "H80"
**.H80.ipcProcess0.difName = "Shim80To130"
**.H80.ipcProcess0.ipcAddress = "80"
**.R130.ipcProcess[1].difName = "Shim80To130"
**.R130.ipcProcess[1].ipcAddress = "130"

**.H81.ipcProcess1.difName = "RandDIF"
**.H81.ipcProcess1.ipcAddress = "H81"
**.H81.ipcProcess0.difName = "Shim81To131"
**.H81.ipcProcess0.ipcAddress = "81"
**.R131.ipcProcess[1].difName = "Shim81To131"
**.R131.ipcProcess[1].ipcAddress = "131"

**.H82.ipcProcess1.difName = "RandDIF"
**.H82.ipcProcess1.ipcAddress = "H82"
**.H82.ipcProcess0.difName = "Shim82To132"
**.H82.ipcProcess0.ipcAddress = "82"
**.R132.ipcProcess[1].difName = "Shim82To132"
**.R132.ipcProcess[1].ipcAddress = "132"

**.H83.ipcProcess1.difName = "RandDIF"
**.H83.ipcProcess1.ipcAddress = "H83"
**.H83.ipcProcess0.difName = "Shim83To133"
**.H83.ipcProcess0.ipcAddress = "83"
**.R133.ipcProcess[1].difName = "Shim83To133"
**.R133.ipcProcess[1].ipcAddress = "133"

**.H84.ipcProcess1.difName = "RandDIF"
**.H84.ipcProcess1.ipcAddress = "H84"
**.H84.ipcProcess0.difName = "Shim84To134"
**.H84.ipcProcess0.ipcAddress = "84"
**.R134.ipcProcess[1].difName = "Shim84To134"
**.R134.ipcProcess[1].ipcAddress = "134"

**.H85.ipcProcess1.difName = "RandDIF"
**.H85.ipcProcess1.ipcAddress = "H85"
**.H85.ipcProcess0.difName = "Shim85To135"
**.H85.ipcProcess0.ipcAddress = "85"
**.R135.ipcProcess[1].difName = "Shim85To135"
**.R135.ipcProcess[1].ipcAddress = "135"

**.H86.ipcProcess1.difName = "RandDIF"
**.H86.ipcProcess1.ipcAddress = "H86"
**.H86.ipcProcess0.difName = "Shim86To136"
**.H86.ipcProcess0.ipcAddress = "86"
**.R136.ipcProcess[1].difName = "Shim86To136"
**.R136.ipcProcess[1].ipcAddress = "136"

**.H87.ipcProcess1.difName = "RandDIF"
**.H87.ipcProcess1.ipcAddress = "H87"
**.H87.ipcProcess0.difName = "Shim87To137"
**.H87.ipcProcess0.ipcAddress = "87"
**.R137.ipcProcess[1].difName = "Shim87To137"
**.R137.ipcProcess[1].ipcAddress = "137"

**.H88.ipcProcess1.difName = "RandDIF"
**.H88.ipcProcess1.ipcAddress = "H88"
**.H88.ipcProcess0.difName = "Shim88To138"
**.H88.ipcProcess0.ipcAddress = "88"
**.R138.ipcProcess[1].difName = "Shim88To138"
**.R138.ipcProcess[1].ipcAddress = "138"

**.H89.ipcProcess1.difName = "RandDIF"
**.H89.ipcProcess1.ipcAddress = "H89"
**.H89.ipcProcess0.difName = "Shim89To139"
**.H89.ipcProcess0.ipcAddress = "89"
**.R139.ipcProcess[1].difName = "Shim89To139"
**.R139.ipcProcess[1].ipcAddress = "139"

**.H90.ipcProcess1.difName = "RandDIF"
**.H90.ipcProcess1.ipcAddress = "H90"
**.H90.ipcProcess0.difName = "Shim90To140"
**.H90.ipcProcess0.ipcAddress = "90"
**.R140.ipcProcess[1].difName = "Shim90To140"
**.R140.ipcProcess[1].ipcAddress = "140"

**.H91.ipcProcess1.difName = "RandDIF"
**.H91.ipcProcess1.ipcAddress = "H91"
**.H91.ipcProcess0.difName = "Shim91To141"
**.H91.ipcProcess0.ipcAddress = "91"
**.R141.ipcProcess[1].difName = "Shim91To141"
**.R141.ipcProcess[1].ipcAddress = "141"

**.H92.ipcProcess1.difName = "RandDIF"
**.H92.ipcProcess1.ipcAddress = "H92"
**.H92.ipcProcess0.difName = "Shim92To142"
**.H92.ipcProcess0.ipcAddress = "92"
**.R142.ipcProcess[1].difName = "Shim92To142"
**.R142.ipcProcess[1].ipcAddress = "142"

**.H93.ipcProcess1.difName = "RandDIF"
**.H93.ipcProcess1.ipcAddress = "H93"
**.H93.ipcProcess0.difName = "Shim93To143"
**.H93.ipcProcess0.ipcAddress = "93"
**.R143.ipcProcess[1].difName = "Shim93To143"
**.R143.ipcProcess[1].ipcAddress = "143"

**.H94.ipcProcess1.difName = "RandDIF"
**.H94.ipcProcess1.ipcAddress = "H94"
**.H94.ipcProcess0.difName = "Shim94To144"
**.H94.ipcProcess0.ipcAddress = "94"
**.R144.ipcProcess[1].difName = "Shim94To144"
**.R144.ipcProcess[1].ipcAddress = "144"

**.H95.ipcProcess1.difName = "RandDIF"
**.H95.ipcProcess1.ipcAddress = "H95"
**.H95.ipcProcess0.difName = "Shim95To145"
**.H95.ipcProcess0.ipcAddress = "95"
**.R145.ipcProcess[1].difName = "Shim95To145"
**.R145.ipcProcess[1].ipcAddress = "145"

**.H96.ipcProcess1.difName = "RandDIF"
**.H96.ipcProcess1.ipcAddress = "H96"
**.H96.ipcProcess0.difName = "Shim96To146"
**.H96.ipcProcess0.ipcAddress = "96"
**.R146.ipcProcess[1].difName = "Shim96To146"
**.R146.ipcProcess[1].ipcAddress = "146"

**.H97.ipcProcess1.difName = "RandDIF"
**.H97.ipcProcess1.ipcAddress = "H97"
**.H97.ipcProcess0.difName = "Shim97To147"
**.H97.ipcProcess0.ipcAddress = "97"
**.R147.ipcProcess[1].difName = "Shim97To147"
**.R147.ipcProcess[1].ipcAddress = "147"

**.H98.ipcProcess1.difName = "RandDIF"
**.H98.ipcProcess1.ipcAddress = "H98"
**.H98.ipcProcess0.difName = "Shim98To148"
**.H98.ipcProcess0.ipcAddress = "98"
**.R148.ipcProcess[1].difName = "Shim98To148"
**.R148.ipcProcess[1].ipcAddress = "148"

**.H99.ipcProcess1.difName = "RandDIF"
**.H99.ipcProcess1.ipcAddress = "H99"
**.H99.ipcProcess0.difName = "Shim99To149"
**.H99.ipcProcess0.ipcAddress = "99"
**.R149.ipcProcess[1].difName = "Shim99To149"
**.R149.ipcProcess[1].ipcAddress = "149"

**.H100.ipcProcess1.difName = "RandDIF"
**.H100.ipcProcess1.ipcAddress = "H100"
**.H100.ipcProcess0.difName = "Shim100To150"
**.H100.ipcProcess0.ipcAddress = "100"