[General]
network = CongestedNode

sim-time-limit =  1min

#Addressing settings
**.router.*.ipcAddress = "0"
**.router.ipcProcess0.difName = "Shim-1"
**.router.ipcProcess1.difName = "Shim-2"
**.router.relayIpc.difName = "Over"

**.host1.*.ipcAddress = "1"
**.host1.ipcProcess0.difName = "Shim-1"
**.host1.ipcProcess1.difName = "Over"

**.host2.*.ipcAddress = "2"
**.host2.ipcProcess0.difName = "Shim-2"
**.host2.ipcProcess1.difName = "Over"


#QoS settings
**.ra.qoscubesData = xmldoc("QoS.xml", "Configuration/QoSCubesSet")
**.fa.createRequestTimeout = 15s

#Routing settings
**.router.relayIpc.resourceAllocator.pdufgPolicyName = "QoSDomainGenerator"
**.router.relayIpc.relayAndMux.ForwardingPolicyName = "QoSTable"
**.router.relayIpc.routingPolicyName = "DomainRouting"
**.router.relayIpc.resourceAllocator.pduFwdGenerator.nDomains = 9

**.host*.ipcProcess1.resourceAllocator.pdufgPolicyName = "QoSDomainGenerator"
**.host*.ipcProcess1.relayAndMux.ForwardingPolicyName = "QoSTable"
**.host*.ipcProcess1.routingPolicyName = "DomainRouting"
**.host*.ipcProcess1.resourceAllocator.pduFwdGenerator.nDomains = 9

#DIF Allocator settings
**.difAllocator.configData = xmldoc("config.xml", "Configuration/DA")
**.difAllocator.directory.configData = xmldoc("config.xml", "Configuration/DA")

#Shim-Flows allocation
**.ra.preallocation = xmldoc("config.xml", "Configuration/ConnectionSets/ConnectionSet[@id='all']/")

**.flowAllocator.newFlowReqPolicyType = "MinComparer"
#Apps Configuration
**.nofAP = 180
**.iae.aeName = "Stream"
**.applicationEntity.aeType = "AESender"
**.host2.AP[*].applicationEntity.iae.startAt = 0
**.host2.AP[*].applicationEntity.iae.stopAt = 0
**.host1.AP[*].applicationEntity.iae.stopAt = 40s
**.host1.AP[*].applicationEntity.iae.size = 1024
**.host1.AP[*].applicationEntity.iae.sizevar = 400
**.host1.AP[0].applicationEntity.iae.pduburst = 20
**.host1.AP[0].applicationEntity.iae.startAt = 6s
**.host1.AP[0].applicationEntity.iae.sendAfter = 29s
**.host1.AP[0].apName = "App1_1_0"
**.host2.AP[0].apName = "App2_1_0"
**.host1.AP[0].applicationEntity.iae.dstApName = "App2_1_0"
**.host1.AP[0].applicationEntity.iae.delay = 15us
**.host1.AP[0].applicationEntity.iae.pduDroppingProbability = 0.001
**.host1.AP[0].applicationEntity.iae.rate = 0.001
**.host1.AP[0].applicationEntity.iae.ratevar = 6.666666666666666E-4
**.host1.AP[1].applicationEntity.iae.startAt = 6s
**.host1.AP[1].applicationEntity.iae.sendAfter = 29s
**.host1.AP[1].apName = "App1_1_1"
**.host2.AP[1].apName = "App2_1_1"
**.host1.AP[1].applicationEntity.iae.dstApName = "App2_1_1"
**.host1.AP[1].applicationEntity.iae.delay = 15us
**.host1.AP[1].applicationEntity.iae.pduDroppingProbability = 0.001
**.host1.AP[1].applicationEntity.iae.rate = 0.001
**.host1.AP[1].applicationEntity.iae.ratevar = 6.666666666666666E-4
**.host1.AP[2].applicationEntity.iae.startAt = 6s
**.host1.AP[2].applicationEntity.iae.sendAfter = 29s
**.host1.AP[2].apName = "App1_1_2"
**.host2.AP[2].apName = "App2_1_2"
**.host1.AP[2].applicationEntity.iae.dstApName = "App2_1_2"
**.host1.AP[2].applicationEntity.iae.delay = 15us
**.host1.AP[2].applicationEntity.iae.pduDroppingProbability = 0.001
**.host1.AP[2].applicationEntity.iae.rate = 0.001
**.host1.AP[2].applicationEntity.iae.ratevar = 6.666666666666666E-4
**.host1.AP[3].applicationEntity.iae.startAt = 6s
**.host1.AP[3].applicationEntity.iae.sendAfter = 29s
**.host1.AP[3].apName = "App1_1_3"
**.host2.AP[3].apName = "App2_1_3"
**.host1.AP[3].applicationEntity.iae.dstApName = "App2_1_3"
**.host1.AP[3].applicationEntity.iae.delay = 15us
**.host1.AP[3].applicationEntity.iae.pduDroppingProbability = 0.001
**.host1.AP[3].applicationEntity.iae.rate = 0.001
**.host1.AP[3].applicationEntity.iae.ratevar = 6.666666666666666E-4
**.host1.AP[4].applicationEntity.iae.startAt = 6s
**.host1.AP[4].applicationEntity.iae.sendAfter = 29s
**.host1.AP[4].apName = "App1_1_4"
**.host2.AP[4].apName = "App2_1_4"
**.host1.AP[4].applicationEntity.iae.dstApName = "App2_1_4"
**.host1.AP[4].applicationEntity.iae.delay = 15us
**.host1.AP[4].applicationEntity.iae.pduDroppingProbability = 0.001
**.host1.AP[4].applicationEntity.iae.rate = 0.001
**.host1.AP[4].applicationEntity.iae.ratevar = 6.666666666666666E-4
**.host1.AP[5].applicationEntity.iae.startAt = 6s
**.host1.AP[5].applicationEntity.iae.sendAfter = 29s
**.host1.AP[5].apName = "App1_1_5"
**.host2.AP[5].apName = "App2_1_5"
**.host1.AP[5].applicationEntity.iae.dstApName = "App2_1_5"
**.host1.AP[5].applicationEntity.iae.delay = 15us
**.host1.AP[5].applicationEntity.iae.pduDroppingProbability = 0.001
**.host1.AP[5].applicationEntity.iae.rate = 0.001
**.host1.AP[5].applicationEntity.iae.ratevar = 6.666666666666666E-4
**.host1.AP[6].applicationEntity.iae.startAt = 6s
**.host1.AP[6].applicationEntity.iae.sendAfter = 29s
**.host1.AP[6].apName = "App1_1_6"
**.host2.AP[6].apName = "App2_1_6"
**.host1.AP[6].applicationEntity.iae.dstApName = "App2_1_6"
**.host1.AP[6].applicationEntity.iae.delay = 15us
**.host1.AP[6].applicationEntity.iae.pduDroppingProbability = 0.001
**.host1.AP[6].applicationEntity.iae.rate = 0.001
**.host1.AP[6].applicationEntity.iae.ratevar = 6.666666666666666E-4
**.host1.AP[7].applicationEntity.iae.startAt = 6s
**.host1.AP[7].applicationEntity.iae.sendAfter = 29s
**.host1.AP[7].apName = "App1_1_7"
**.host2.AP[7].apName = "App2_1_7"
**.host1.AP[7].applicationEntity.iae.dstApName = "App2_1_7"
**.host1.AP[7].applicationEntity.iae.delay = 15us
**.host1.AP[7].applicationEntity.iae.pduDroppingProbability = 0.001
**.host1.AP[7].applicationEntity.iae.rate = 0.001
**.host1.AP[7].applicationEntity.iae.ratevar = 6.666666666666666E-4
**.host1.AP[8].applicationEntity.iae.startAt = 6s
**.host1.AP[8].applicationEntity.iae.sendAfter = 29s
**.host1.AP[8].apName = "App1_1_8"
**.host2.AP[8].apName = "App2_1_8"
**.host1.AP[8].applicationEntity.iae.dstApName = "App2_1_8"
**.host1.AP[8].applicationEntity.iae.delay = 15us
**.host1.AP[8].applicationEntity.iae.pduDroppingProbability = 0.001
**.host1.AP[8].applicationEntity.iae.rate = 0.001
**.host1.AP[8].applicationEntity.iae.ratevar = 6.666666666666666E-4
**.host1.AP[9].applicationEntity.iae.startAt = 6s
**.host1.AP[9].applicationEntity.iae.sendAfter = 29s
**.host1.AP[9].apName = "App1_1_9"
**.host2.AP[9].apName = "App2_1_9"
**.host1.AP[9].applicationEntity.iae.dstApName = "App2_1_9"
**.host1.AP[9].applicationEntity.iae.delay = 15us
**.host1.AP[9].applicationEntity.iae.pduDroppingProbability = 0.001
**.host1.AP[9].applicationEntity.iae.rate = 0.001
**.host1.AP[9].applicationEntity.iae.ratevar = 6.666666666666666E-4
**.host1.AP[10].applicationEntity.iae.startAt = 6s
**.host1.AP[10].applicationEntity.iae.sendAfter = 29s
**.host1.AP[10].apName = "App1_1_10"
**.host2.AP[10].apName = "App2_1_10"
**.host1.AP[10].applicationEntity.iae.dstApName = "App2_1_10"
**.host1.AP[10].applicationEntity.iae.delay = 15us
**.host1.AP[10].applicationEntity.iae.pduDroppingProbability = 0.001
**.host1.AP[10].applicationEntity.iae.rate = 0.001
**.host1.AP[10].applicationEntity.iae.ratevar = 6.666666666666666E-4
**.host1.AP[11].applicationEntity.iae.startAt = 6s
**.host1.AP[11].applicationEntity.iae.sendAfter = 29s
**.host1.AP[11].apName = "App1_1_11"
**.host2.AP[11].apName = "App2_1_11"
**.host1.AP[11].applicationEntity.iae.dstApName = "App2_1_11"
**.host1.AP[11].applicationEntity.iae.delay = 15us
**.host1.AP[11].applicationEntity.iae.pduDroppingProbability = 0.001
**.host1.AP[11].applicationEntity.iae.rate = 0.001
**.host1.AP[11].applicationEntity.iae.ratevar = 6.666666666666666E-4
**.host1.AP[12].applicationEntity.iae.startAt = 6s
**.host1.AP[12].applicationEntity.iae.sendAfter = 29s
**.host1.AP[12].apName = "App1_1_12"
**.host2.AP[12].apName = "App2_1_12"
**.host1.AP[12].applicationEntity.iae.dstApName = "App2_1_12"
**.host1.AP[12].applicationEntity.iae.delay = 15us
**.host1.AP[12].applicationEntity.iae.pduDroppingProbability = 0.001
**.host1.AP[12].applicationEntity.iae.rate = 0.001
**.host1.AP[12].applicationEntity.iae.ratevar = 6.666666666666666E-4
**.host1.AP[13].applicationEntity.iae.startAt = 6s
**.host1.AP[13].applicationEntity.iae.sendAfter = 29s
**.host1.AP[13].apName = "App1_1_13"
**.host2.AP[13].apName = "App2_1_13"
**.host1.AP[13].applicationEntity.iae.dstApName = "App2_1_13"
**.host1.AP[13].applicationEntity.iae.delay = 15us
**.host1.AP[13].applicationEntity.iae.pduDroppingProbability = 0.001
**.host1.AP[13].applicationEntity.iae.rate = 0.001
**.host1.AP[13].applicationEntity.iae.ratevar = 6.666666666666666E-4
**.host1.AP[14].applicationEntity.iae.startAt = 6s
**.host1.AP[14].applicationEntity.iae.sendAfter = 29s
**.host1.AP[14].apName = "App1_1_14"
**.host2.AP[14].apName = "App2_1_14"
**.host1.AP[14].applicationEntity.iae.dstApName = "App2_1_14"
**.host1.AP[14].applicationEntity.iae.delay = 15us
**.host1.AP[14].applicationEntity.iae.pduDroppingProbability = 0.001
**.host1.AP[14].applicationEntity.iae.rate = 0.001
**.host1.AP[14].applicationEntity.iae.ratevar = 6.666666666666666E-4
**.host1.AP[15].applicationEntity.iae.startAt = 6s
**.host1.AP[15].applicationEntity.iae.sendAfter = 29s
**.host1.AP[15].apName = "App1_1_15"
**.host2.AP[15].apName = "App2_1_15"
**.host1.AP[15].applicationEntity.iae.dstApName = "App2_1_15"
**.host1.AP[15].applicationEntity.iae.delay = 15us
**.host1.AP[15].applicationEntity.iae.pduDroppingProbability = 0.001
**.host1.AP[15].applicationEntity.iae.rate = 0.001
**.host1.AP[15].applicationEntity.iae.ratevar = 6.666666666666666E-4
**.host1.AP[16].applicationEntity.iae.startAt = 6s
**.host1.AP[16].applicationEntity.iae.sendAfter = 29s
**.host1.AP[16].apName = "App1_1_16"
**.host2.AP[16].apName = "App2_1_16"
**.host1.AP[16].applicationEntity.iae.dstApName = "App2_1_16"
**.host1.AP[16].applicationEntity.iae.delay = 15us
**.host1.AP[16].applicationEntity.iae.pduDroppingProbability = 0.001
**.host1.AP[16].applicationEntity.iae.rate = 0.001
**.host1.AP[16].applicationEntity.iae.ratevar = 6.666666666666666E-4
**.host1.AP[17].applicationEntity.iae.startAt = 6s
**.host1.AP[17].applicationEntity.iae.sendAfter = 29s
**.host1.AP[17].apName = "App1_1_17"
**.host2.AP[17].apName = "App2_1_17"
**.host1.AP[17].applicationEntity.iae.dstApName = "App2_1_17"
**.host1.AP[17].applicationEntity.iae.delay = 15us
**.host1.AP[17].applicationEntity.iae.pduDroppingProbability = 0.001
**.host1.AP[17].applicationEntity.iae.rate = 0.001
**.host1.AP[17].applicationEntity.iae.ratevar = 6.666666666666666E-4
**.host1.AP[18].applicationEntity.iae.startAt = 6s
**.host1.AP[18].applicationEntity.iae.sendAfter = 29s
**.host1.AP[18].apName = "App1_1_18"
**.host2.AP[18].apName = "App2_1_18"
**.host1.AP[18].applicationEntity.iae.dstApName = "App2_1_18"
**.host1.AP[18].applicationEntity.iae.delay = 15us
**.host1.AP[18].applicationEntity.iae.pduDroppingProbability = 0.001
**.host1.AP[18].applicationEntity.iae.rate = 0.001
**.host1.AP[18].applicationEntity.iae.ratevar = 6.666666666666666E-4
**.host1.AP[19].applicationEntity.iae.startAt = 6s
**.host1.AP[19].applicationEntity.iae.sendAfter = 29s
**.host1.AP[19].apName = "App1_1_19"
**.host2.AP[19].apName = "App2_1_19"
**.host1.AP[19].applicationEntity.iae.dstApName = "App2_1_19"
**.host1.AP[19].applicationEntity.iae.delay = 15us
**.host1.AP[19].applicationEntity.iae.pduDroppingProbability = 0.001
**.host1.AP[19].applicationEntity.iae.rate = 0.001
**.host1.AP[19].applicationEntity.iae.ratevar = 6.666666666666666E-4
**.host1.AP[20].applicationEntity.iae.startAt = 7s
**.host1.AP[20].applicationEntity.iae.sendAfter = 28s
**.host1.AP[20].apName = "App1_2_0"
**.host2.AP[20].apName = "App2_2_0"
**.host1.AP[20].applicationEntity.iae.dstApName = "App2_2_0"
**.host1.AP[20].applicationEntity.iae.delay = 15us
**.host1.AP[20].applicationEntity.iae.pduDroppingProbability = 0.01
**.host1.AP[20].applicationEntity.iae.rate = 5.0E-4
**.host1.AP[20].applicationEntity.iae.ratevar = 3.333333333333333E-4
**.host1.AP[21].applicationEntity.iae.startAt = 7s
**.host1.AP[21].applicationEntity.iae.sendAfter = 28s
**.host1.AP[21].apName = "App1_2_1"
**.host2.AP[21].apName = "App2_2_1"
**.host1.AP[21].applicationEntity.iae.dstApName = "App2_2_1"
**.host1.AP[21].applicationEntity.iae.delay = 15us
**.host1.AP[21].applicationEntity.iae.pduDroppingProbability = 0.01
**.host1.AP[21].applicationEntity.iae.rate = 5.0E-4
**.host1.AP[21].applicationEntity.iae.ratevar = 3.333333333333333E-4
**.host1.AP[22].applicationEntity.iae.startAt = 7s
**.host1.AP[22].applicationEntity.iae.sendAfter = 28s
**.host1.AP[22].apName = "App1_2_2"
**.host2.AP[22].apName = "App2_2_2"
**.host1.AP[22].applicationEntity.iae.dstApName = "App2_2_2"
**.host1.AP[22].applicationEntity.iae.delay = 15us
**.host1.AP[22].applicationEntity.iae.pduDroppingProbability = 0.01
**.host1.AP[22].applicationEntity.iae.rate = 5.0E-4
**.host1.AP[22].applicationEntity.iae.ratevar = 3.333333333333333E-4
**.host1.AP[23].applicationEntity.iae.startAt = 7s
**.host1.AP[23].applicationEntity.iae.sendAfter = 28s
**.host1.AP[23].apName = "App1_2_3"
**.host2.AP[23].apName = "App2_2_3"
**.host1.AP[23].applicationEntity.iae.dstApName = "App2_2_3"
**.host1.AP[23].applicationEntity.iae.delay = 15us
**.host1.AP[23].applicationEntity.iae.pduDroppingProbability = 0.01
**.host1.AP[23].applicationEntity.iae.rate = 5.0E-4
**.host1.AP[23].applicationEntity.iae.ratevar = 3.333333333333333E-4
**.host1.AP[24].applicationEntity.iae.startAt = 7s
**.host1.AP[24].applicationEntity.iae.sendAfter = 28s
**.host1.AP[24].apName = "App1_2_4"
**.host2.AP[24].apName = "App2_2_4"
**.host1.AP[24].applicationEntity.iae.dstApName = "App2_2_4"
**.host1.AP[24].applicationEntity.iae.delay = 15us
**.host1.AP[24].applicationEntity.iae.pduDroppingProbability = 0.01
**.host1.AP[24].applicationEntity.iae.rate = 5.0E-4
**.host1.AP[24].applicationEntity.iae.ratevar = 3.333333333333333E-4
**.host1.AP[25].applicationEntity.iae.startAt = 7s
**.host1.AP[25].applicationEntity.iae.sendAfter = 28s
**.host1.AP[25].apName = "App1_2_5"
**.host2.AP[25].apName = "App2_2_5"
**.host1.AP[25].applicationEntity.iae.dstApName = "App2_2_5"
**.host1.AP[25].applicationEntity.iae.delay = 15us
**.host1.AP[25].applicationEntity.iae.pduDroppingProbability = 0.01
**.host1.AP[25].applicationEntity.iae.rate = 5.0E-4
**.host1.AP[25].applicationEntity.iae.ratevar = 3.333333333333333E-4
**.host1.AP[26].applicationEntity.iae.startAt = 7s
**.host1.AP[26].applicationEntity.iae.sendAfter = 28s
**.host1.AP[26].apName = "App1_2_6"
**.host2.AP[26].apName = "App2_2_6"
**.host1.AP[26].applicationEntity.iae.dstApName = "App2_2_6"
**.host1.AP[26].applicationEntity.iae.delay = 15us
**.host1.AP[26].applicationEntity.iae.pduDroppingProbability = 0.01
**.host1.AP[26].applicationEntity.iae.rate = 5.0E-4
**.host1.AP[26].applicationEntity.iae.ratevar = 3.333333333333333E-4
**.host1.AP[27].applicationEntity.iae.startAt = 7s
**.host1.AP[27].applicationEntity.iae.sendAfter = 28s
**.host1.AP[27].apName = "App1_2_7"
**.host2.AP[27].apName = "App2_2_7"
**.host1.AP[27].applicationEntity.iae.dstApName = "App2_2_7"
**.host1.AP[27].applicationEntity.iae.delay = 15us
**.host1.AP[27].applicationEntity.iae.pduDroppingProbability = 0.01
**.host1.AP[27].applicationEntity.iae.rate = 5.0E-4
**.host1.AP[27].applicationEntity.iae.ratevar = 3.333333333333333E-4
**.host1.AP[28].applicationEntity.iae.startAt = 7s
**.host1.AP[28].applicationEntity.iae.sendAfter = 28s
**.host1.AP[28].apName = "App1_2_8"
**.host2.AP[28].apName = "App2_2_8"
**.host1.AP[28].applicationEntity.iae.dstApName = "App2_2_8"
**.host1.AP[28].applicationEntity.iae.delay = 15us
**.host1.AP[28].applicationEntity.iae.pduDroppingProbability = 0.01
**.host1.AP[28].applicationEntity.iae.rate = 5.0E-4
**.host1.AP[28].applicationEntity.iae.ratevar = 3.333333333333333E-4
**.host1.AP[29].applicationEntity.iae.startAt = 7s
**.host1.AP[29].applicationEntity.iae.sendAfter = 28s
**.host1.AP[29].apName = "App1_2_9"
**.host2.AP[29].apName = "App2_2_9"
**.host1.AP[29].applicationEntity.iae.dstApName = "App2_2_9"
**.host1.AP[29].applicationEntity.iae.delay = 15us
**.host1.AP[29].applicationEntity.iae.pduDroppingProbability = 0.01
**.host1.AP[29].applicationEntity.iae.rate = 5.0E-4
**.host1.AP[29].applicationEntity.iae.ratevar = 3.333333333333333E-4
**.host1.AP[30].applicationEntity.iae.startAt = 7s
**.host1.AP[30].applicationEntity.iae.sendAfter = 28s
**.host1.AP[30].apName = "App1_2_10"
**.host2.AP[30].apName = "App2_2_10"
**.host1.AP[30].applicationEntity.iae.dstApName = "App2_2_10"
**.host1.AP[30].applicationEntity.iae.delay = 15us
**.host1.AP[30].applicationEntity.iae.pduDroppingProbability = 0.01
**.host1.AP[30].applicationEntity.iae.rate = 5.0E-4
**.host1.AP[30].applicationEntity.iae.ratevar = 3.333333333333333E-4
**.host1.AP[31].applicationEntity.iae.startAt = 7s
**.host1.AP[31].applicationEntity.iae.sendAfter = 28s
**.host1.AP[31].apName = "App1_2_11"
**.host2.AP[31].apName = "App2_2_11"
**.host1.AP[31].applicationEntity.iae.dstApName = "App2_2_11"
**.host1.AP[31].applicationEntity.iae.delay = 15us
**.host1.AP[31].applicationEntity.iae.pduDroppingProbability = 0.01
**.host1.AP[31].applicationEntity.iae.rate = 5.0E-4
**.host1.AP[31].applicationEntity.iae.ratevar = 3.333333333333333E-4
**.host1.AP[32].applicationEntity.iae.startAt = 7s
**.host1.AP[32].applicationEntity.iae.sendAfter = 28s
**.host1.AP[32].apName = "App1_2_12"
**.host2.AP[32].apName = "App2_2_12"
**.host1.AP[32].applicationEntity.iae.dstApName = "App2_2_12"
**.host1.AP[32].applicationEntity.iae.delay = 15us
**.host1.AP[32].applicationEntity.iae.pduDroppingProbability = 0.01
**.host1.AP[32].applicationEntity.iae.rate = 5.0E-4
**.host1.AP[32].applicationEntity.iae.ratevar = 3.333333333333333E-4
**.host1.AP[33].applicationEntity.iae.startAt = 7s
**.host1.AP[33].applicationEntity.iae.sendAfter = 28s
**.host1.AP[33].apName = "App1_2_13"
**.host2.AP[33].apName = "App2_2_13"
**.host1.AP[33].applicationEntity.iae.dstApName = "App2_2_13"
**.host1.AP[33].applicationEntity.iae.delay = 15us
**.host1.AP[33].applicationEntity.iae.pduDroppingProbability = 0.01
**.host1.AP[33].applicationEntity.iae.rate = 5.0E-4
**.host1.AP[33].applicationEntity.iae.ratevar = 3.333333333333333E-4
**.host1.AP[34].applicationEntity.iae.startAt = 7s
**.host1.AP[34].applicationEntity.iae.sendAfter = 28s
**.host1.AP[34].apName = "App1_2_14"
**.host2.AP[34].apName = "App2_2_14"
**.host1.AP[34].applicationEntity.iae.dstApName = "App2_2_14"
**.host1.AP[34].applicationEntity.iae.delay = 15us
**.host1.AP[34].applicationEntity.iae.pduDroppingProbability = 0.01
**.host1.AP[34].applicationEntity.iae.rate = 5.0E-4
**.host1.AP[34].applicationEntity.iae.ratevar = 3.333333333333333E-4
**.host1.AP[35].applicationEntity.iae.startAt = 7s
**.host1.AP[35].applicationEntity.iae.sendAfter = 28s
**.host1.AP[35].apName = "App1_2_15"
**.host2.AP[35].apName = "App2_2_15"
**.host1.AP[35].applicationEntity.iae.dstApName = "App2_2_15"
**.host1.AP[35].applicationEntity.iae.delay = 15us
**.host1.AP[35].applicationEntity.iae.pduDroppingProbability = 0.01
**.host1.AP[35].applicationEntity.iae.rate = 5.0E-4
**.host1.AP[35].applicationEntity.iae.ratevar = 3.333333333333333E-4
**.host1.AP[36].applicationEntity.iae.startAt = 7s
**.host1.AP[36].applicationEntity.iae.sendAfter = 28s
**.host1.AP[36].apName = "App1_2_16"
**.host2.AP[36].apName = "App2_2_16"
**.host1.AP[36].applicationEntity.iae.dstApName = "App2_2_16"
**.host1.AP[36].applicationEntity.iae.delay = 15us
**.host1.AP[36].applicationEntity.iae.pduDroppingProbability = 0.01
**.host1.AP[36].applicationEntity.iae.rate = 5.0E-4
**.host1.AP[36].applicationEntity.iae.ratevar = 3.333333333333333E-4
**.host1.AP[37].applicationEntity.iae.startAt = 7s
**.host1.AP[37].applicationEntity.iae.sendAfter = 28s
**.host1.AP[37].apName = "App1_2_17"
**.host2.AP[37].apName = "App2_2_17"
**.host1.AP[37].applicationEntity.iae.dstApName = "App2_2_17"
**.host1.AP[37].applicationEntity.iae.delay = 15us
**.host1.AP[37].applicationEntity.iae.pduDroppingProbability = 0.01
**.host1.AP[37].applicationEntity.iae.rate = 5.0E-4
**.host1.AP[37].applicationEntity.iae.ratevar = 3.333333333333333E-4
**.host1.AP[38].applicationEntity.iae.startAt = 7s
**.host1.AP[38].applicationEntity.iae.sendAfter = 28s
**.host1.AP[38].apName = "App1_2_18"
**.host2.AP[38].apName = "App2_2_18"
**.host1.AP[38].applicationEntity.iae.dstApName = "App2_2_18"
**.host1.AP[38].applicationEntity.iae.delay = 15us
**.host1.AP[38].applicationEntity.iae.pduDroppingProbability = 0.01
**.host1.AP[38].applicationEntity.iae.rate = 5.0E-4
**.host1.AP[38].applicationEntity.iae.ratevar = 3.333333333333333E-4
**.host1.AP[39].applicationEntity.iae.startAt = 7s
**.host1.AP[39].applicationEntity.iae.sendAfter = 28s
**.host1.AP[39].apName = "App1_2_19"
**.host2.AP[39].apName = "App2_2_19"
**.host1.AP[39].applicationEntity.iae.dstApName = "App2_2_19"
**.host1.AP[39].applicationEntity.iae.delay = 15us
**.host1.AP[39].applicationEntity.iae.pduDroppingProbability = 0.01
**.host1.AP[39].applicationEntity.iae.rate = 5.0E-4
**.host1.AP[39].applicationEntity.iae.ratevar = 3.333333333333333E-4
**.host1.AP[40].applicationEntity.iae.startAt = 8s
**.host1.AP[40].applicationEntity.iae.sendAfter = 27s
**.host1.AP[40].apName = "App1_3_0"
**.host2.AP[40].apName = "App2_3_0"
**.host1.AP[40].applicationEntity.iae.dstApName = "App2_3_0"
**.host1.AP[40].applicationEntity.iae.delay = 15us
**.host1.AP[40].applicationEntity.iae.pduDroppingProbability = 0.1
**.host1.AP[40].applicationEntity.iae.rate = 3.333333333333333E-4
**.host1.AP[40].applicationEntity.iae.ratevar = 2.222222222222222E-4
**.host1.AP[41].applicationEntity.iae.startAt = 8s
**.host1.AP[41].applicationEntity.iae.sendAfter = 27s
**.host1.AP[41].apName = "App1_3_1"
**.host2.AP[41].apName = "App2_3_1"
**.host1.AP[41].applicationEntity.iae.dstApName = "App2_3_1"
**.host1.AP[41].applicationEntity.iae.delay = 15us
**.host1.AP[41].applicationEntity.iae.pduDroppingProbability = 0.1
**.host1.AP[41].applicationEntity.iae.rate = 3.333333333333333E-4
**.host1.AP[41].applicationEntity.iae.ratevar = 2.222222222222222E-4
**.host1.AP[42].applicationEntity.iae.startAt = 8s
**.host1.AP[42].applicationEntity.iae.sendAfter = 27s
**.host1.AP[42].apName = "App1_3_2"
**.host2.AP[42].apName = "App2_3_2"
**.host1.AP[42].applicationEntity.iae.dstApName = "App2_3_2"
**.host1.AP[42].applicationEntity.iae.delay = 15us
**.host1.AP[42].applicationEntity.iae.pduDroppingProbability = 0.1
**.host1.AP[42].applicationEntity.iae.rate = 3.333333333333333E-4
**.host1.AP[42].applicationEntity.iae.ratevar = 2.222222222222222E-4
**.host1.AP[43].applicationEntity.iae.startAt = 8s
**.host1.AP[43].applicationEntity.iae.sendAfter = 27s
**.host1.AP[43].apName = "App1_3_3"
**.host2.AP[43].apName = "App2_3_3"
**.host1.AP[43].applicationEntity.iae.dstApName = "App2_3_3"
**.host1.AP[43].applicationEntity.iae.delay = 15us
**.host1.AP[43].applicationEntity.iae.pduDroppingProbability = 0.1
**.host1.AP[43].applicationEntity.iae.rate = 3.333333333333333E-4
**.host1.AP[43].applicationEntity.iae.ratevar = 2.222222222222222E-4
**.host1.AP[44].applicationEntity.iae.startAt = 8s
**.host1.AP[44].applicationEntity.iae.sendAfter = 27s
**.host1.AP[44].apName = "App1_3_4"
**.host2.AP[44].apName = "App2_3_4"
**.host1.AP[44].applicationEntity.iae.dstApName = "App2_3_4"
**.host1.AP[44].applicationEntity.iae.delay = 15us
**.host1.AP[44].applicationEntity.iae.pduDroppingProbability = 0.1
**.host1.AP[44].applicationEntity.iae.rate = 3.333333333333333E-4
**.host1.AP[44].applicationEntity.iae.ratevar = 2.222222222222222E-4
**.host1.AP[45].applicationEntity.iae.startAt = 8s
**.host1.AP[45].applicationEntity.iae.sendAfter = 27s
**.host1.AP[45].apName = "App1_3_5"
**.host2.AP[45].apName = "App2_3_5"
**.host1.AP[45].applicationEntity.iae.dstApName = "App2_3_5"
**.host1.AP[45].applicationEntity.iae.delay = 15us
**.host1.AP[45].applicationEntity.iae.pduDroppingProbability = 0.1
**.host1.AP[45].applicationEntity.iae.rate = 3.333333333333333E-4
**.host1.AP[45].applicationEntity.iae.ratevar = 2.222222222222222E-4
**.host1.AP[46].applicationEntity.iae.startAt = 8s
**.host1.AP[46].applicationEntity.iae.sendAfter = 27s
**.host1.AP[46].apName = "App1_3_6"
**.host2.AP[46].apName = "App2_3_6"
**.host1.AP[46].applicationEntity.iae.dstApName = "App2_3_6"
**.host1.AP[46].applicationEntity.iae.delay = 15us
**.host1.AP[46].applicationEntity.iae.pduDroppingProbability = 0.1
**.host1.AP[46].applicationEntity.iae.rate = 3.333333333333333E-4
**.host1.AP[46].applicationEntity.iae.ratevar = 2.222222222222222E-4
**.host1.AP[47].applicationEntity.iae.startAt = 8s
**.host1.AP[47].applicationEntity.iae.sendAfter = 27s
**.host1.AP[47].apName = "App1_3_7"
**.host2.AP[47].apName = "App2_3_7"
**.host1.AP[47].applicationEntity.iae.dstApName = "App2_3_7"
**.host1.AP[47].applicationEntity.iae.delay = 15us
**.host1.AP[47].applicationEntity.iae.pduDroppingProbability = 0.1
**.host1.AP[47].applicationEntity.iae.rate = 3.333333333333333E-4
**.host1.AP[47].applicationEntity.iae.ratevar = 2.222222222222222E-4
**.host1.AP[48].applicationEntity.iae.startAt = 8s
**.host1.AP[48].applicationEntity.iae.sendAfter = 27s
**.host1.AP[48].apName = "App1_3_8"
**.host2.AP[48].apName = "App2_3_8"
**.host1.AP[48].applicationEntity.iae.dstApName = "App2_3_8"
**.host1.AP[48].applicationEntity.iae.delay = 15us
**.host1.AP[48].applicationEntity.iae.pduDroppingProbability = 0.1
**.host1.AP[48].applicationEntity.iae.rate = 3.333333333333333E-4
**.host1.AP[48].applicationEntity.iae.ratevar = 2.222222222222222E-4
**.host1.AP[49].applicationEntity.iae.startAt = 8s
**.host1.AP[49].applicationEntity.iae.sendAfter = 27s
**.host1.AP[49].apName = "App1_3_9"
**.host2.AP[49].apName = "App2_3_9"
**.host1.AP[49].applicationEntity.iae.dstApName = "App2_3_9"
**.host1.AP[49].applicationEntity.iae.delay = 15us
**.host1.AP[49].applicationEntity.iae.pduDroppingProbability = 0.1
**.host1.AP[49].applicationEntity.iae.rate = 3.333333333333333E-4
**.host1.AP[49].applicationEntity.iae.ratevar = 2.222222222222222E-4
**.host1.AP[50].applicationEntity.iae.startAt = 8s
**.host1.AP[50].applicationEntity.iae.sendAfter = 27s
**.host1.AP[50].apName = "App1_3_10"
**.host2.AP[50].apName = "App2_3_10"
**.host1.AP[50].applicationEntity.iae.dstApName = "App2_3_10"
**.host1.AP[50].applicationEntity.iae.delay = 15us
**.host1.AP[50].applicationEntity.iae.pduDroppingProbability = 0.1
**.host1.AP[50].applicationEntity.iae.rate = 3.333333333333333E-4
**.host1.AP[50].applicationEntity.iae.ratevar = 2.222222222222222E-4
**.host1.AP[51].applicationEntity.iae.startAt = 8s
**.host1.AP[51].applicationEntity.iae.sendAfter = 27s
**.host1.AP[51].apName = "App1_3_11"
**.host2.AP[51].apName = "App2_3_11"
**.host1.AP[51].applicationEntity.iae.dstApName = "App2_3_11"
**.host1.AP[51].applicationEntity.iae.delay = 15us
**.host1.AP[51].applicationEntity.iae.pduDroppingProbability = 0.1
**.host1.AP[51].applicationEntity.iae.rate = 3.333333333333333E-4
**.host1.AP[51].applicationEntity.iae.ratevar = 2.222222222222222E-4
**.host1.AP[52].applicationEntity.iae.startAt = 8s
**.host1.AP[52].applicationEntity.iae.sendAfter = 27s
**.host1.AP[52].apName = "App1_3_12"
**.host2.AP[52].apName = "App2_3_12"
**.host1.AP[52].applicationEntity.iae.dstApName = "App2_3_12"
**.host1.AP[52].applicationEntity.iae.delay = 15us
**.host1.AP[52].applicationEntity.iae.pduDroppingProbability = 0.1
**.host1.AP[52].applicationEntity.iae.rate = 3.333333333333333E-4
**.host1.AP[52].applicationEntity.iae.ratevar = 2.222222222222222E-4
**.host1.AP[53].applicationEntity.iae.startAt = 8s
**.host1.AP[53].applicationEntity.iae.sendAfter = 27s
**.host1.AP[53].apName = "App1_3_13"
**.host2.AP[53].apName = "App2_3_13"
**.host1.AP[53].applicationEntity.iae.dstApName = "App2_3_13"
**.host1.AP[53].applicationEntity.iae.delay = 15us
**.host1.AP[53].applicationEntity.iae.pduDroppingProbability = 0.1
**.host1.AP[53].applicationEntity.iae.rate = 3.333333333333333E-4
**.host1.AP[53].applicationEntity.iae.ratevar = 2.222222222222222E-4
**.host1.AP[54].applicationEntity.iae.startAt = 8s
**.host1.AP[54].applicationEntity.iae.sendAfter = 27s
**.host1.AP[54].apName = "App1_3_14"
**.host2.AP[54].apName = "App2_3_14"
**.host1.AP[54].applicationEntity.iae.dstApName = "App2_3_14"
**.host1.AP[54].applicationEntity.iae.delay = 15us
**.host1.AP[54].applicationEntity.iae.pduDroppingProbability = 0.1
**.host1.AP[54].applicationEntity.iae.rate = 3.333333333333333E-4
**.host1.AP[54].applicationEntity.iae.ratevar = 2.222222222222222E-4
**.host1.AP[55].applicationEntity.iae.startAt = 8s
**.host1.AP[55].applicationEntity.iae.sendAfter = 27s
**.host1.AP[55].apName = "App1_3_15"
**.host2.AP[55].apName = "App2_3_15"
**.host1.AP[55].applicationEntity.iae.dstApName = "App2_3_15"
**.host1.AP[55].applicationEntity.iae.delay = 15us
**.host1.AP[55].applicationEntity.iae.pduDroppingProbability = 0.1
**.host1.AP[55].applicationEntity.iae.rate = 3.333333333333333E-4
**.host1.AP[55].applicationEntity.iae.ratevar = 2.222222222222222E-4
**.host1.AP[56].applicationEntity.iae.startAt = 8s
**.host1.AP[56].applicationEntity.iae.sendAfter = 27s
**.host1.AP[56].apName = "App1_3_16"
**.host2.AP[56].apName = "App2_3_16"
**.host1.AP[56].applicationEntity.iae.dstApName = "App2_3_16"
**.host1.AP[56].applicationEntity.iae.delay = 15us
**.host1.AP[56].applicationEntity.iae.pduDroppingProbability = 0.1
**.host1.AP[56].applicationEntity.iae.rate = 3.333333333333333E-4
**.host1.AP[56].applicationEntity.iae.ratevar = 2.222222222222222E-4
**.host1.AP[57].applicationEntity.iae.startAt = 8s
**.host1.AP[57].applicationEntity.iae.sendAfter = 27s
**.host1.AP[57].apName = "App1_3_17"
**.host2.AP[57].apName = "App2_3_17"
**.host1.AP[57].applicationEntity.iae.dstApName = "App2_3_17"
**.host1.AP[57].applicationEntity.iae.delay = 15us
**.host1.AP[57].applicationEntity.iae.pduDroppingProbability = 0.1
**.host1.AP[57].applicationEntity.iae.rate = 3.333333333333333E-4
**.host1.AP[57].applicationEntity.iae.ratevar = 2.222222222222222E-4
**.host1.AP[58].applicationEntity.iae.startAt = 8s
**.host1.AP[58].applicationEntity.iae.sendAfter = 27s
**.host1.AP[58].apName = "App1_3_18"
**.host2.AP[58].apName = "App2_3_18"