[General]
network = DCloud
sim-time-limit =  5min

**.R*.relayIpc.difName = "NET"

**.R_1.relayIpc.ipcAddress = "1"
**.R_1.ipcProcess[0].difName = "shim-1-1.1"
**.R_1.ipcProcess[0].ipcAddress = "1"
**.R_1.ipcProcess[1].difName = "shim-1-1.2"
**.R_1.ipcProcess[1].ipcAddress = "1"
**.R_1.ipcProcess[2].difName = "shim-1-1.3"
**.R_1.ipcProcess[2].ipcAddress = "1"
**.R_1.ipcProcess[3].difName = "shim-1-2"
**.R_1.ipcProcess[3].ipcAddress = "1"

**.R_1_1.relayIpc.ipcAddress = "1.1"
**.R_1_1.ipcProcess[0].difName = "shim-1-1.1"
**.R_1_1.ipcProcess[0].ipcAddress = "2"
**.R_1_1.ipcProcess[1].difName = "shim-1.1-1.1.1"
**.R_1_1.ipcProcess[1].ipcAddress = "1"
**.R_1_1.ipcProcess[2].difName = "shim-1.1-1.1.8"
**.R_1_1.ipcProcess[2].ipcAddress = "1"
**.R_1_1.ipcProcess[3].difName = "shim-1.1-1.5"
**.R_1_1.ipcProcess[3].ipcAddress = "1"
**.R_1_1.ipcProcess[4].difName = "shim-1.1-1.7"
**.R_1_1.ipcProcess[4].ipcAddress = "1"

**.R_1_1_1.relayIpc.ipcAddress = "1.1.1"
**.R_1_1_1.ipcProcess[0].difName = "shim-1.1-1.1.1"
**.R_1_1_1.ipcProcess[0].ipcAddress = "2"
**.R_1_1_1.ipcProcess[1].difName = "shim-1.1.1-1.1.2"
**.R_1_1_1.ipcProcess[1].ipcAddress = "1"
**.R_1_1_1.ipcProcess[2].difName = "shim-1.1.1-1.1.a"
**.R_1_1_1.ipcProcess[2].ipcAddress = "1"

**.R_1_1_2.relayIpc.ipcAddress = "1.1.2"
**.R_1_1_2.ipcProcess[0].difName = "shim-1.1.1-1.1.2"
**.R_1_1_2.ipcProcess[0].ipcAddress = "2"
**.R_1_1_2.ipcProcess[1].difName = "shim-1.1.2-1.1.3"
**.R_1_1_2.ipcProcess[1].ipcAddress = "1"
**.R_1_1_2.ipcProcess[2].difName = "shim-1.1.2-1.1.5"
**.R_1_1_2.ipcProcess[2].ipcAddress = "1"
**.R_1_1_2.ipcProcess[3].difName = "shim-1.1.2-1.1.6"
**.R_1_1_2.ipcProcess[3].ipcAddress = "1"

**.R_1_1_3.relayIpc.ipcAddress = "1.1.3"
**.R_1_1_3.ipcProcess[0].difName = "shim-1.1.2-1.1.3"
**.R_1_1_3.ipcProcess[0].ipcAddress = "2"
**.R_1_1_3.ipcProcess[1].difName = "shim-1.1.3-1.1.4"
**.R_1_1_3.ipcProcess[1].ipcAddress = "1"

**.R_1_1_4.relayIpc.ipcAddress = "1.1.4"
**.R_1_1_4.ipcProcess[0].difName = "shim-1.1.3-1.1.4"
**.R_1_1_4.ipcProcess[0].ipcAddress = "2"
**.R_1_1_4.ipcProcess[1].difName = "shim-1.1.4-1.1.7"
**.R_1_1_4.ipcProcess[1].ipcAddress = "1"

**.R_1_1_5.relayIpc.ipcAddress = "1.1.5"
**.R_1_1_5.ipcProcess[0].difName = "shim-1.1.2-1.1.5"
**.R_1_1_5.ipcProcess[0].ipcAddress = "2"
**.R_1_1_5.ipcProcess[1].difName = "shim-1.1.5-1.1.9"
**.R_1_1_5.ipcProcess[1].ipcAddress = "1"

**.R_1_1_6.relayIpc.ipcAddress = "1.1.6"
**.R_1_1_6.ipcProcess[0].difName = "shim-1.1.2-1.1.6"
**.R_1_1_6.ipcProcess[0].ipcAddress = "2"

**.R_1_1_7.relayIpc.ipcAddress = "1.1.7"
**.R_1_1_7.ipcProcess[0].difName = "shim-1.1.4-1.1.7"
**.R_1_1_7.ipcProcess[0].ipcAddress = "2"

**.R_1_1_8.relayIpc.ipcAddress = "1.1.8"
**.R_1_1_8.ipcProcess[0].difName = "shim-1.1-1.1.8"
**.R_1_1_8.ipcProcess[0].ipcAddress = "2"

**.R_1_1_9.relayIpc.ipcAddress = "1.1.9"
**.R_1_1_9.ipcProcess[0].difName = "shim-1.1.5-1.1.9"
**.R_1_1_9.ipcProcess[0].ipcAddress = "2"

**.R_1_1_a.relayIpc.ipcAddress = "1.1.a"
**.R_1_1_a.ipcProcess[0].difName = "shim-1.1.1-1.1.a"
**.R_1_1_a.ipcProcess[0].ipcAddress = "2"

**.R_1_2.relayIpc.ipcAddress = "1.2"
**.R_1_2.ipcProcess[0].difName = "shim-1-1.2"
**.R_1_2.ipcProcess[0].ipcAddress = "2"
**.R_1_2.ipcProcess[1].difName = "shim-1.2-1.2.1"
**.R_1_2.ipcProcess[1].ipcAddress = "1"
**.R_1_2.ipcProcess[2].difName = "shim-1.2-1.2.2"
**.R_1_2.ipcProcess[2].ipcAddress = "1"
**.R_1_2.ipcProcess[3].difName = "shim-1.2-1.2.a"
**.R_1_2.ipcProcess[3].ipcAddress = "1"

**.R_1_2_1.relayIpc.ipcAddress = "1.2.1"
**.R_1_2_1.ipcProcess[0].difName = "shim-1.2-1.2.1"
**.R_1_2_1.ipcProcess[0].ipcAddress = "2"
**.R_1_2_1.ipcProcess[1].difName = "shim-1.2.1-1.2.3"
**.R_1_2_1.ipcProcess[1].ipcAddress = "1"

**.R_1_2_2.relayIpc.ipcAddress = "1.2.2"
**.R_1_2_2.ipcProcess[0].difName = "shim-1.2-1.2.2"
**.R_1_2_2.ipcProcess[0].ipcAddress = "2"
**.R_1_2_2.ipcProcess[1].difName = "shim-1.2.2-1.2.4"
**.R_1_2_2.ipcProcess[1].ipcAddress = "1"
**.R_1_2_2.ipcProcess[2].difName = "shim-1.2.2-1.2.5"
**.R_1_2_2.ipcProcess[2].ipcAddress = "1"
**.R_1_2_2.ipcProcess[3].difName = "shim-1.2.2-1.2.7"
**.R_1_2_2.ipcProcess[3].ipcAddress = "1"
**.R_1_2_2.ipcProcess[4].difName = "shim-1.2.2-1.2.8"
**.R_1_2_2.ipcProcess[4].ipcAddress = "1"

**.R_1_2_3.relayIpc.ipcAddress = "1.2.3"
**.R_1_2_3.ipcProcess[0].difName = "shim-1.2.1-1.2.3"
**.R_1_2_3.ipcProcess[0].ipcAddress = "2"

**.R_1_2_4.relayIpc.ipcAddress = "1.2.4"
**.R_1_2_4.ipcProcess[0].difName = "shim-1.2.2-1.2.4"
**.R_1_2_4.ipcProcess[0].ipcAddress = "2"
**.R_1_2_4.ipcProcess[1].difName = "shim-1.2.4-1.2.6"
**.R_1_2_4.ipcProcess[1].ipcAddress = "1"

**.R_1_2_5.relayIpc.ipcAddress = "1.2.5"
**.R_1_2_5.ipcProcess[0].difName = "shim-1.2.2-1.2.5"
**.R_1_2_5.ipcProcess[0].ipcAddress = "2"
**.R_1_2_5.ipcProcess[1].difName = "shim-1.2.5-1.2.9"
**.R_1_2_5.ipcProcess[1].ipcAddress = "1"

**.R_1_2_6.relayIpc.ipcAddress = "1.2.6"
**.R_1_2_6.ipcProcess[0].difName = "shim-1.2.4-1.2.6"
**.R_1_2_6.ipcProcess[0].ipcAddress = "2"

**.R_1_2_7.relayIpc.ipcAddress = "1.2.7"
**.R_1_2_7.ipcProcess[0].difName = "shim-1.2.2-1.2.7"
**.R_1_2_7.ipcProcess[0].ipcAddress = "2"

**.R_1_2_8.relayIpc.ipcAddress = "1.2.8"
**.R_1_2_8.ipcProcess[0].difName = "shim-1.2.2-1.2.8"
**.R_1_2_8.ipcProcess[0].ipcAddress = "2"

**.R_1_2_9.relayIpc.ipcAddress = "1.2.9"
**.R_1_2_9.ipcProcess[0].difName = "shim-1.2.5-1.2.9"
**.R_1_2_9.ipcProcess[0].ipcAddress = "2"

**.R_1_2_a.relayIpc.ipcAddress = "1.2.a"
**.R_1_2_a.ipcProcess[0].difName = "shim-1.2-1.2.a"
**.R_1_2_a.ipcProcess[0].ipcAddress = "2"

**.R_1_3.relayIpc.ipcAddress = "1.3"
**.R_1_3.ipcProcess[0].difName = "shim-1-1.3"
**.R_1_3.ipcProcess[0].ipcAddress = "2"
**.R_1_3.ipcProcess[1].difName = "shim-1.3-1.3.1"
**.R_1_3.ipcProcess[1].ipcAddress = "1"
**.R_1_3.ipcProcess[2].difName = "shim-1.3-1.3.7"
**.R_1_3.ipcProcess[2].ipcAddress = "1"
**.R_1_3.ipcProcess[3].difName = "shim-1.3-1.3.8"
**.R_1_3.ipcProcess[3].ipcAddress = "1"
**.R_1_3.ipcProcess[4].difName = "shim-1.3-1.4"
**.R_1_3.ipcProcess[4].ipcAddress = "1"

**.R_1_3_1.relayIpc.ipcAddress = "1.3.1"
**.R_1_3_1.ipcProcess[0].difName = "shim-1.3-1.3.1"
**.R_1_3_1.ipcProcess[0].ipcAddress = "2"
**.R_1_3_1.ipcProcess[1].difName = "shim-1.3.1-1.3.2"
**.R_1_3_1.ipcProcess[1].ipcAddress = "1"
**.R_1_3_1.ipcProcess[2].difName = "shim-1.3.1-1.3.9"
**.R_1_3_1.ipcProcess[2].ipcAddress = "1"

**.R_1_3_2.relayIpc.ipcAddress = "1.3.2"
**.R_1_3_2.ipcProcess[0].difName = "shim-1.3.1-1.3.2"
**.R_1_3_2.ipcProcess[0].ipcAddress = "2"
**.R_1_3_2.ipcProcess[1].difName = "shim-1.3.2-1.3.3"
**.R_1_3_2.ipcProcess[1].ipcAddress = "1"

**.R_1_3_3.relayIpc.ipcAddress = "1.3.3"
**.R_1_3_3.ipcProcess[0].difName = "shim-1.3.2-1.3.3"
**.R_1_3_3.ipcProcess[0].ipcAddress = "2"
**.R_1_3_3.ipcProcess[1].difName = "shim-1.3.3-1.3.4"
**.R_1_3_3.ipcProcess[1].ipcAddress = "1"
**.R_1_3_3.ipcProcess[2].difName = "shim-1.3.3-1.3.5"
**.R_1_3_3.ipcProcess[2].ipcAddress = "1"
**.R_1_3_3.ipcProcess[3].difName = "shim-1.3.3-1.3.6"
**.R_1_3_3.ipcProcess[3].ipcAddress = "1"

**.R_1_3_4.relayIpc.ipcAddress = "1.3.4"
**.R_1_3_4.ipcProcess[0].difName = "shim-1.3.3-1.3.4"
**.R_1_3_4.ipcProcess[0].ipcAddress = "2"

**.R_1_3_5.relayIpc.ipcAddress = "1.3.5"
**.R_1_3_5.ipcProcess[0].difName = "shim-1.3.3-1.3.5"
**.R_1_3_5.ipcProcess[0].ipcAddress = "2"

**.R_1_3_6.relayIpc.ipcAddress = "1.3.6"
**.R_1_3_6.ipcProcess[0].difName = "shim-1.3.3-1.3.6"
**.R_1_3_6.ipcProcess[0].ipcAddress = "2"
**.R_1_3_6.ipcProcess[1].difName = "shim-1.3.6-1.3.a"
**.R_1_3_6.ipcProcess[1].ipcAddress = "1"

**.R_1_3_7.relayIpc.ipcAddress = "1.3.7"
**.R_1_3_7.ipcProcess[0].difName = "shim-1.3-1.3.7"
**.R_1_3_7.ipcProcess[0].ipcAddress = "2"

**.R_1_3_8.relayIpc.ipcAddress = "1.3.8"
**.R_1_3_8.ipcProcess[0].difName = "shim-1.3-1.3.8"
**.R_1_3_8.ipcProcess[0].ipcAddress = "2"

**.R_1_3_9.relayIpc.ipcAddress = "1.3.9"
**.R_1_3_9.ipcProcess[0].difName = "shim-1.3.1-1.3.9"
**.R_1_3_9.ipcProcess[0].ipcAddress = "2"

**.R_1_3_a.relayIpc.ipcAddress = "1.3.a"
**.R_1_3_a.ipcProcess[0].difName = "shim-1.3.6-1.3.a"
**.R_1_3_a.ipcProcess[0].ipcAddress = "2"

**.R_1_4.relayIpc.ipcAddress = "1.4"
**.R_1_4.ipcProcess[0].difName = "shim-1.3-1.4"
**.R_1_4.ipcProcess[0].ipcAddress = "2"
**.R_1_4.ipcProcess[1].difName = "shim-1.4-1.4.1"
**.R_1_4.ipcProcess[1].ipcAddress = "1"
**.R_1_4.ipcProcess[2].difName = "shim-1.4-1.4.8"
**.R_1_4.ipcProcess[2].ipcAddress = "1"
**.R_1_4.ipcProcess[3].difName = "shim-1.4-1.6"
**.R_1_4.ipcProcess[3].ipcAddress = "1"

**.R_1_4_1.relayIpc.ipcAddress = "1.4.1"
**.R_1_4_1.ipcProcess[0].difName = "shim-1.4-1.4.1"
**.R_1_4_1.ipcProcess[0].ipcAddress = "2"
**.R_1_4_1.ipcProcess[1].difName = "shim-1.4.1-1.4.2"
**.R_1_4_1.ipcProcess[1].ipcAddress = "1"

**.R_1_4_2.relayIpc.ipcAddress = "1.4.2"
**.R_1_4_2.ipcProcess[0].difName = "shim-1.4.1-1.4.2"
**.R_1_4_2.ipcProcess[0].ipcAddress = "2"
**.R_1_4_2.ipcProcess[1].difName = "shim-1.4.2-1.4.3"
**.R_1_4_2.ipcProcess[1].ipcAddress = "1"

**.R_1_4_3.relayIpc.ipcAddress = "1.4.3"
**.R_1_4_3.ipcProcess[0].difName = "shim-1.4.2-1.4.3"
**.R_1_4_3.ipcProcess[0].ipcAddress = "2"
**.R_1_4_3.ipcProcess[1].difName = "shim-1.4.3-1.4.4"
**.R_1_4_3.ipcProcess[1].ipcAddress = "1"
**.R_1_4_3.ipcProcess[2].difName = "shim-1.4.3-1.4.5"
**.R_1_4_3.ipcProcess[2].ipcAddress = "1"

**.R_1_4_4.relayIpc.ipcAddress = "1.4.4"
**.R_1_4_4.ipcProcess[0].difName = "shim-1.4.3-1.4.4"
**.R_1_4_4.ipcProcess[0].ipcAddress = "2"
**.R_1_4_4.ipcProcess[1].difName = "shim-1.4.4-1.4.6"
**.R_1_4_4.ipcProcess[1].ipcAddress = "1"
**.R_1_4_4.ipcProcess[2].difName = "shim-1.4.4-1.4.9"
**.R_1_4_4.ipcProcess[2].ipcAddress = "1"

**.R_1_4_5.relayIpc.ipcAddress = "1.4.5"
**.R_1_4_5.ipcProcess[0].difName = "shim-1.4.3-1.4.5"
**.R_1_4_5.ipcProcess[0].ipcAddress = "2"

**.R_1_4_6.relayIpc.ipcAddress = "1.4.6"
**.R_1_4_6.ipcProcess[0].difName = "shim-1.4.4-1.4.6"
**.R_1_4_6.ipcProcess[0].ipcAddress = "2"
**.R_1_4_6.ipcProcess[1].difName = "shim-1.4.6-1.4.7"
**.R_1_4_6.ipcProcess[1].ipcAddress = "1"

**.R_1_4_7.relayIpc.ipcAddress = "1.4.7"
**.R_1_4_7.ipcProcess[0].difName = "shim-1.4.6-1.4.7"
**.R_1_4_7.ipcProcess[0].ipcAddress = "2"

**.R_1_4_8.relayIpc.ipcAddress = "1.4.8"
**.R_1_4_8.ipcProcess[0].difName = "shim-1.4-1.4.8"
**.R_1_4_8.ipcProcess[0].ipcAddress = "2"

**.R_1_4_9.relayIpc.ipcAddress = "1.4.9"
**.R_1_4_9.ipcProcess[0].difName = "shim-1.4.4-1.4.9"
**.R_1_4_9.ipcProcess[0].ipcAddress = "2"
**.R_1_4_9.ipcProcess[1].difName = "shim-1.4.9-1.4.a"
**.R_1_4_9.ipcProcess[1].ipcAddress = "1"

**.R_1_4_a.relayIpc.ipcAddress = "1.4.a"
**.R_1_4_a.ipcProcess[0].difName = "shim-1.4.9-1.4.a"
**.R_1_4_a.ipcProcess[0].ipcAddress = "2"

**.R_1_5.relayIpc.ipcAddress = "1.5"
**.R_1_5.ipcProcess[0].difName = "shim-1.1-1.5"
**.R_1_5.ipcProcess[0].ipcAddress = "2"
**.R_1_5.ipcProcess[1].difName = "shim-1.5-1.5.1"
**.R_1_5.ipcProcess[1].ipcAddress = "1"
**.R_1_5.ipcProcess[2].difName = "shim-1.5-1.5.3"
**.R_1_5.ipcProcess[2].ipcAddress = "1"
**.R_1_5.ipcProcess[3].difName = "shim-1.5-1.5.4"
**.R_1_5.ipcProcess[3].ipcAddress = "1"
**.R_1_5.ipcProcess[4].difName = "shim-1.5-1.8"
**.R_1_5.ipcProcess[4].ipcAddress = "1"
**.R_1_5.ipcProcess[5].difName = "shim-1.5-1.9"
**.R_1_5.ipcProcess[5].ipcAddress = "1"
**.R_1_5.ipcProcess[6].difName = "shim-1.5-1.a"
**.R_1_5.ipcProcess[6].ipcAddress = "1"

**.R_1_5_1.relayIpc.ipcAddress = "1.5.1"
**.R_1_5_1.ipcProcess[0].difName = "shim-1.5-1.5.1"
**.R_1_5_1.ipcProcess[0].ipcAddress = "2"
**.R_1_5_1.ipcProcess[1].difName = "shim-1.5.1-1.5.2"
**.R_1_5_1.ipcProcess[1].ipcAddress = "1"

**.R_1_5_2.relayIpc.ipcAddress = "1.5.2"
**.R_1_5_2.ipcProcess[0].difName = "shim-1.5.1-1.5.2"
**.R_1_5_2.ipcProcess[0].ipcAddress = "2"
**.R_1_5_2.ipcProcess[1].difName = "shim-1.5.2-1.5.5"
**.R_1_5_2.ipcProcess[1].ipcAddress = "1"

**.R_1_5_3.relayIpc.ipcAddress = "1.5.3"
**.R_1_5_3.ipcProcess[0].difName = "shim-1.5-1.5.3"
**.R_1_5_3.ipcProcess[0].ipcAddress = "2"
**.R_1_5_3.ipcProcess[1].difName = "shim-1.5.3-1.5.7"
**.R_1_5_3.ipcProcess[1].ipcAddress = "1"

**.R_1_5_4.relayIpc.ipcAddress = "1.5.4"
**.R_1_5_4.ipcProcess[0].difName = "shim-1.5-1.5.4"
**.R_1_5_4.ipcProcess[0].ipcAddress = "2"
**.R_1_5_4.ipcProcess[1].difName = "shim-1.5.4-1.5.6"
**.R_1_5_4.ipcProcess[1].ipcAddress = "1"
**.R_1_5_4.ipcProcess[2].difName = "shim-1.5.4-1.5.8"
**.R_1_5_4.ipcProcess[2].ipcAddress = "1"

**.R_1_5_5.relayIpc.ipcAddress = "1.5.5"
**.R_1_5_5.ipcProcess[0].difName = "shim-1.5.2-1.5.5"
**.R_1_5_5.ipcProcess[0].ipcAddress = "2"
**.R_1_5_5.ipcProcess[1].difName = "shim-1.5.5-1.5.9"
**.R_1_5_5.ipcProcess[1].ipcAddress = "1"
**.R_1_5_5.ipcProcess[2].difName = "shim-1.5.5-1.5.a"
**.R_1_5_5.ipcProcess[2].ipcAddress = "1"

**.R_1_5_6.relayIpc.ipcAddress = "1.5.6"
**.R_1_5_6.ipcProcess[0].difName = "shim-1.5.4-1.5.6"
**.R_1_5_6.ipcProcess[0].ipcAddress = "2"

**.R_1_5_7.relayIpc.ipcAddress = "1.5.7"
**.R_1_5_7.ipcProcess[0].difName = "shim-1.5.3-1.5.7"
**.R_1_5_7.ipcProcess[0].ipcAddress = "2"

**.R_1_5_8.relayIpc.ipcAddress = "1.5.8"
**.R_1_5_8.ipcProcess[0].difName = "shim-1.5.4-1.5.8"
**.R_1_5_8.ipcProcess[0].ipcAddress = "2"

**.R_1_5_9.relayIpc.ipcAddress = "1.5.9"
**.R_1_5_9.ipcProcess[0].difName = "shim-1.5.5-1.5.9"
**.R_1_5_9.ipcProcess[0].ipcAddress = "2"

**.R_1_5_a.relayIpc.ipcAddress = "1.5.a"
**.R_1_5_a.ipcProcess[0].difName = "shim-1.5.5-1.5.a"
**.R_1_5_a.ipcProcess[0].ipcAddress = "2"

**.R_1_6.relayIpc.ipcAddress = "1.6"
**.R_1_6.ipcProcess[0].difName = "shim-1.4-1.6"
**.R_1_6.ipcProcess[0].ipcAddress = "2"
**.R_1_6.ipcProcess[1].difName = "shim-1.6-1.6.1"
**.R_1_6.ipcProcess[1].ipcAddress = "1"
**.R_1_6.ipcProcess[2].difName = "shim-1.6-1.6.2"
**.R_1_6.ipcProcess[2].ipcAddress = "1"
**.R_1_6.ipcProcess[3].difName = "shim-1.6-1.6.3"
**.R_1_6.ipcProcess[3].ipcAddress = "1"
**.R_1_6.ipcProcess[4].difName = "shim-1.6-1.6.7"
**.R_1_6.ipcProcess[4].ipcAddress = "1"
**.R_1_6.ipcProcess[5].difName = "shim-1.6-1.6.8"
**.R_1_6.ipcProcess[5].ipcAddress = "1"

**.R_1_6_1.relayIpc.ipcAddress = "1.6.1"
**.R_1_6_1.ipcProcess[0].difName = "shim-1.6-1.6.1"
**.R_1_6_1.ipcProcess[0].ipcAddress = "2"

**.R_1_6_2.relayIpc.ipcAddress = "1.6.2"
**.R_1_6_2.ipcProcess[0].difName = "shim-1.6-1.6.2"
**.R_1_6_2.ipcProcess[0].ipcAddress = "2"

**.R_1_6_3.relayIpc.ipcAddress = "1.6.3"
**.R_1_6_3.ipcProcess[0].difName = "shim-1.6-1.6.3"
**.R_1_6_3.ipcProcess[0].ipcAddress = "2"
**.R_1_6_3.ipcProcess[1].difName = "shim-1.6.3-1.6.4"
**.R_1_6_3.ipcProcess[1].ipcAddress = "1"
**.R_1_6_3.ipcProcess[2].difName = "shim-1.6.3-1.6.5"
**.R_1_6_3.ipcProcess[2].ipcAddress = "1"

**.R_1_6_4.relayIpc.ipcAddress = "1.6.4"
**.R_1_6_4.ipcProcess[0].difName = "shim-1.6.3-1.6.4"
**.R_1_6_4.ipcProcess[0].ipcAddress = "2"

**.R_1_6_5.relayIpc.ipcAddress = "1.6.5"
**.R_1_6_5.ipcProcess[0].difName = "shim-1.6.3-1.6.5"
**.R_1_6_5.ipcProcess[0].ipcAddress = "2"
**.R_1_6_5.ipcProcess[1].difName = "shim-1.6.5-1.6.6"
**.R_1_6_5.ipcProcess[1].ipcAddress = "1"

**.R_1_6_6.relayIpc.ipcAddress = "1.6.6"
**.R_1_6_6.ipcProcess[0].difName = "shim-1.6.5-1.6.6"
**.R_1_6_6.ipcProcess[0].ipcAddress = "2"
**.R_1_6_6.ipcProcess[1].difName = "shim-1.6.6-1.6.9"
**.R_1_6_6.ipcProcess[1].ipcAddress = "1"

**.R_1_6_7.relayIpc.ipcAddress = "1.6.7"
**.R_1_6_7.ipcProcess[0].difName = "shim-1.6-1.6.7"
**.R_1_6_7.ipcProcess[0].ipcAddress = "2"

**.R_1_6_8.relayIpc.ipcAddress = "1.6.8"
**.R_1_6_8.ipcProcess[0].difName = "shim-1.6-1.6.8"
**.R_1_6_8.ipcProcess[0].ipcAddress = "2"

**.R_1_6_9.relayIpc.ipcAddress = "1.6.9"
**.R_1_6_9.ipcProcess[0].difName = "shim-1.6.6-1.6.9"
**.R_1_6_9.ipcProcess[0].ipcAddress = "2"
**.R_1_6_9.ipcProcess[1].difName = "shim-1.6.9-1.6.a"
**.R_1_6_9.ipcProcess[1].ipcAddress = "1"

**.R_1_6_a.relayIpc.ipcAddress = "1.6.a"
**.R_1_6_a.ipcProcess[0].difName = "shim-1.6.9-1.6.a"
**.R_1_6_a.ipcProcess[0].ipcAddress = "2"

**.R_1_7.relayIpc.ipcAddress = "1.7"
**.R_1_7.ipcProcess[0].difName = "shim-1.1-1.7"
**.R_1_7.ipcProcess[0].ipcAddress = "2"
**.R_1_7.ipcProcess[1].difName = "shim-1.7-1.7.1"
**.R_1_7.ipcProcess[1].ipcAddress = "1"
**.R_1_7.ipcProcess[2].difName = "shim-1.7-1.7.2"
**.R_1_7.ipcProcess[2].ipcAddress = "1"
**.R_1_7.ipcProcess[3].difName = "shim-1.7-1.7.5"
**.R_1_7.ipcProcess[3].ipcAddress = "1"

**.R_1_7_1.relayIpc.ipcAddress = "1.7.1"
**.R_1_7_1.ipcProcess[0].difName = "shim-1.7-1.7.1"
**.R_1_7_1.ipcProcess[0].ipcAddress = "2"
**.R_1_7_1.ipcProcess[1].difName = "shim-1.7.1-1.7.3"
**.R_1_7_1.ipcProcess[1].ipcAddress = "1"
**.R_1_7_1.ipcProcess[2].difName = "shim-1.7.1-1.7.7"
**.R_1_7_1.ipcProcess[2].ipcAddress = "1"
**.R_1_7_1.ipcProcess[3].difName = "shim-1.7.1-1.7.a"
**.R_1_7_1.ipcProcess[3].ipcAddress = "1"

**.R_1_7_2.relayIpc.ipcAddress = "1.7.2"
**.R_1_7_2.ipcProcess[0].difName = "shim-1.7-1.7.2"
**.R_1_7_2.ipcProcess[0].ipcAddress = "2"
**.R_1_7_2.ipcProcess[1].difName = "shim-1.7.2-1.7.4"
**.R_1_7_2.ipcProcess[1].ipcAddress = "1"

**.R_1_7_3.relayIpc.ipcAddress = "1.7.3"
**.R_1_7_3.ipcProcess[0].difName = "shim-1.7.1-1.7.3"
**.R_1_7_3.ipcProcess[0].ipcAddress = "2"
**.R_1_7_3.ipcProcess[1].difName = "shim-1.7.3-1.7.6"
**.R_1_7_3.ipcProcess[1].ipcAddress = "1"

**.R_1_7_4.relayIpc.ipcAddress = "1.7.4"
**.R_1_7_4.ipcProcess[0].difName = "shim-1.7.2-1.7.4"
**.R_1_7_4.ipcProcess[0].ipcAddress = "2"

**.R_1_7_5.relayIpc.ipcAddress = "1.7.5"
**.R_1_7_5.ipcProcess[0].difName = "shim-1.7-1.7.5"
**.R_1_7_5.ipcProcess[0].ipcAddress = "2"

**.R_1_7_6.relayIpc.ipcAddress = "1.7.6"
**.R_1_7_6.ipcProcess[0].difName = "shim-1.7.3-1.7.6"
**.R_1_7_6.ipcProcess[0].ipcAddress = "2"

**.R_1_7_7.relayIpc.ipcAddress = "1.7.7"
**.R_1_7_7.ipcProcess[0].difName = "shim-1.7.1-1.7.7"
**.R_1_7_7.ipcProcess[0].ipcAddress = "2"
**.R_1_7_7.ipcProcess[1].difName = "shim-1.7.7-1.7.8"
**.R_1_7_7.ipcProcess[1].ipcAddress = "1"

**.R_1_7_8.relayIpc.ipcAddress = "1.7.8"
**.R_1_7_8.ipcProcess[0].difName = "shim-1.7.7-1.7.8"
**.R_1_7_8.ipcProcess[0].ipcAddress = "2"
**.R_1_7_8.ipcProcess[1].difName = "shim-1.7.8-1.7.9"
**.R_1_7_8.ipcProcess[1].ipcAddress = "1"

**.R_1_7_9.relayIpc.ipcAddress = "1.7.9"
**.R_1_7_9.ipcProcess[0].difName = "shim-1.7.8-1.7.9"
**.R_1_7_9.ipcProcess[0].ipcAddress = "2"

**.R_1_7_a.relayIpc.ipcAddress = "1.7.a"
**.R_1_7_a.ipcProcess[0].difName = "shim-1.7.1-1.7.a"
**.R_1_7_a.ipcProcess[0].ipcAddress = "2"

**.R_1_8.relayIpc.ipcAddress = "1.8"
**.R_1_8.ipcProcess[0].difName = "shim-1.5-1.8"
**.R_1_8.ipcProcess[0].ipcAddress = "2"
**.R_1_8.ipcProcess[1].difName = "shim-1.8-1.8.1"
**.R_1_8.ipcProcess[1].ipcAddress = "1"
**.R_1_8.ipcProcess[2].difName = "shim-1.8-1.8.3"
**.R_1_8.ipcProcess[2].ipcAddress = "1"
**.R_1_8.ipcProcess[3].difName = "shim-1.8-1.8.8"
**.R_1_8.ipcProcess[3].ipcAddress = "1"

**.R_1_8_1.relayIpc.ipcAddress = "1.8.1"
**.R_1_8_1.ipcProcess[0].difName = "shim-1.8-1.8.1"
**.R_1_8_1.ipcProcess[0].ipcAddress = "2"
**.R_1_8_1.ipcProcess[1].difName = "shim-1.8.1-1.8.2"
**.R_1_8_1.ipcProcess[1].ipcAddress = "1"
**.R_1_8_1.ipcProcess[2].difName = "shim-1.8.1-1.8.4"
**.R_1_8_1.ipcProcess[2].ipcAddress = "1"
**.R_1_8_1.ipcProcess[3].difName = "shim-1.8.1-1.8.5"
**.R_1_8_1.ipcProcess[3].ipcAddress = "1"
**.R_1_8_1.ipcProcess[4].difName = "shim-1.8.1-1.8.6"
**.R_1_8_1.ipcProcess[4].ipcAddress = "1"

**.R_1_8_2.relayIpc.ipcAddress = "1.8.2"
**.R_1_8_2.ipcProcess[0].difName = "shim-1.8.1-1.8.2"
**.R_1_8_2.ipcProcess[0].ipcAddress = "2"

**.R_1_8_3.relayIpc.ipcAddress = "1.8.3"
**.R_1_8_3.ipcProcess[0].difName = "shim-1.8-1.8.3"
**.R_1_8_3.ipcProcess[0].ipcAddress = "2"
**.R_1_8_3.ipcProcess[1].difName = "shim-1.8.3-1.8.a"
**.R_1_8_3.ipcProcess[1].ipcAddress = "1"

**.R_1_8_4.relayIpc.ipcAddress = "1.8.4"
**.R_1_8_4.ipcProcess[0].difName = "shim-1.8.1-1.8.4"
**.R_1_8_4.ipcProcess[0].ipcAddress = "2"
**.R_1_8_4.ipcProcess[1].difName = "shim-1.8.4-1.8.7"
**.R_1_8_4.ipcProcess[1].ipcAddress = "1"

**.R_1_8_5.relayIpc.ipcAddress = "1.8.5"
**.R_1_8_5.ipcProcess[0].difName = "shim-1.8.1-1.8.5"
**.R_1_8_5.ipcProcess[0].ipcAddress = "2"

**.R_1_8_6.relayIpc.ipcAddress = "1.8.6"
**.R_1_8_6.ipcProcess[0].difName = "shim-1.8.1-1.8.6"
**.R_1_8_6.ipcProcess[0].ipcAddress = "2"

**.R_1_8_7.relayIpc.ipcAddress = "1.8.7"
**.R_1_8_7.ipcProcess[0].difName = "shim-1.8.4-1.8.7"
**.R_1_8_7.ipcProcess[0].ipcAddress = "2"

**.R_1_8_8.relayIpc.ipcAddress = "1.8.8"
**.R_1_8_8.ipcProcess[0].difName = "shim-1.8-1.8.8"
**.R_1_8_8.ipcProcess[0].ipcAddress = "2"
**.R_1_8_8.ipcProcess[1].difName = "shim-1.8.8-1.8.9"
**.R_1_8_8.ipcProcess[1].ipcAddress = "1"

**.R_1_8_9.relayIpc.ipcAddress = "1.8.9"
**.R_1_8_9.ipcProcess[0].difName = "shim-1.8.8-1.8.9"
**.R_1_8_9.ipcProcess[0].ipcAddress = "2"

**.R_1_8_a.relayIpc.ipcAddress = "1.8.a"
**.R_1_8_a.ipcProcess[0].difName = "shim-1.8.3-1.8.a"
**.R_1_8_a.ipcProcess[0].ipcAddress = "2"

**.R_1_9.relayIpc.ipcAddress = "1.9"
**.R_1_9.ipcProcess[0].difName = "shim-1.5-1.9"
**.R_1_9.ipcProcess[0].ipcAddress = "2"
**.R_1_9.ipcProcess[1].difName = "shim-1.9-1.9.1"
**.R_1_9.ipcProcess[1].ipcAddress = "1"
**.R_1_9.ipcProcess[2].difName = "shim-1.9-1.9.4"
**.R_1_9.ipcProcess[2].ipcAddress = "1"

**.R_1_9_1.relayIpc.ipcAddress = "1.9.1"
**.R_1_9_1.ipcProcess[0].difName = "shim-1.9-1.9.1"
**.R_1_9_1.ipcProcess[0].ipcAddress = "2"
**.R_1_9_1.ipcProcess[1].difName = "shim-1.9.1-1.9.2"
**.R_1_9_1.ipcProcess[1].ipcAddress = "1"
**.R_1_9_1.ipcProcess[2].difName = "shim-1.9.1-1.9.3"
**.R_1_9_1.ipcProcess[2].ipcAddress = "1"
**.R_1_9_1.ipcProcess[3].difName = "shim-1.9.1-1.9.5"
**.R_1_9_1.ipcProcess[3].ipcAddress = "1"

**.R_1_9_2.relayIpc.ipcAddress = "1.9.2"
**.R_1_9_2.ipcProcess[0].difName = "shim-1.9.1-1.9.2"
**.R_1_9_2.ipcProcess[0].ipcAddress = "2"

**.R_1_9_3.relayIpc.ipcAddress = "1.9.3"
**.R_1_9_3.ipcProcess[0].difName = "shim-1.9.1-1.9.3"
**.R_1_9_3.ipcProcess[0].ipcAddress = "2"
**.R_1_9_3.ipcProcess[1].difName = "shim-1.9.3-1.9.8"
**.R_1_9_3.ipcProcess[1].ipcAddress = "1"

**.R_1_9_4.relayIpc.ipcAddress = "1.9.4"
**.R_1_9_4.ipcProcess[0].difName = "shim-1.9-1.9.4"
**.R_1_9_4.ipcProcess[0].ipcAddress = "2"
**.R_1_9_4.ipcProcess[1].difName = "shim-1.9.4-1.9.7"
**.R_1_9_4.ipcProcess[1].ipcAddress = "1"

**.R_1_9_5.relayIpc.ipcAddress = "1.9.5"
**.R_1_9_5.ipcProcess[0].difName = "shim-1.9.1-1.9.5"
**.R_1_9_5.ipcProcess[0].ipcAddress = "2"
**.R_1_9_5.ipcProcess[1].difName = "shim-1.9.5-1.9.6"
**.R_1_9_5.ipcProcess[1].ipcAddress = "1"
**.R_1_9_5.ipcProcess[2].difName = "shim-1.9.5-1.9.a"
**.R_1_9_5.ipcProcess[2].ipcAddress = "1"

**.R_1_9_6.relayIpc.ipcAddress = "1.9.6"
**.R_1_9_6.ipcProcess[0].difName = "shim-1.9.5-1.9.6"
**.R_1_9_6.ipcProcess[0].ipcAddress = "2"
**.R_1_9_6.ipcProcess[1].difName = "shim-1.9.6-1.9.9"
**.R_1_9_6.ipcProcess[1].ipcAddress = "1"

**.R_1_9_7.relayIpc.ipcAddress = "1.9.7"
**.R_1_9_7.ipcProcess[0].difName = "shim-1.9.4-1.9.7"
**.R_1_9_7.ipcProcess[0].ipcAddress = "2"

**.R_1_9_8.relayIpc.ipcAddress = "1.9.8"
**.R_1_9_8.ipcProcess[0].difName = "shim-1.9.3-1.9.8"
**.R_1_9_8.ipcProcess[0].ipcAddress = "2"

**.R_1_9_9.relayIpc.ipcAddress = "1.9.9"
**.R_1_9_9.ipcProcess[0].difName = "shim-1.9.6-1.9.9"
**.R_1_9_9.ipcProcess[0].ipcAddress = "2"

**.R_1_9_a.relayIpc.ipcAddress = "1.9.a"
**.R_1_9_a.ipcProcess[0].difName = "shim-1.9.5-1.9.a"
**.R_1_9_a.ipcProcess[0].ipcAddress = "2"

**.R_1_a.relayIpc.ipcAddress = "1.a"
**.R_1_a.ipcProcess[0].difName = "shim-1.5-1.a"
**.R_1_a.ipcProcess[0].ipcAddress = "2"
**.R_1_a.ipcProcess[1].difName = "shim-1.a-1.a.1"
**.R_1_a.ipcProcess[1].ipcAddress = "1"
**.R_1_a.ipcProcess[2].difName = "shim-1.a-1.a.2"
**.R_1_a.ipcProcess[2].ipcAddress = "1"
**.R_1_a.ipcProcess[3].difName = "shim-1.a-1.a.8"
**.R_1_a.ipcProcess[3].ipcAddress = "1"

**.R_1_a_1.relayIpc.ipcAddress = "1.a.1"
**.R_1_a_1.ipcProcess[0].difName = "shim-1.a-1.a.1"
**.R_1_a_1.ipcProcess[0].ipcAddress = "2"
**.R_1_a_1.ipcProcess[1].difName = "shim-1.a.1-1.a.4"
**.R_1_a_1.ipcProcess[1].ipcAddress = "1"

**.R_1_a_2.relayIpc.ipcAddress = "1.a.2"
**.R_1_a_2.ipcProcess[0].difName = "shim-1.a-1.a.2"
**.R_1_a_2.ipcProcess[0].ipcAddress = "2"
**.R_1_a_2.ipcProcess[1].difName = "shim-1.a.2-1.a.3"
**.R_1_a_2.ipcProcess[1].ipcAddress = "1"

**.R_1_a_3.relayIpc.ipcAddress = "1.a.3"
**.R_1_a_3.ipcProcess[0].difName = "shim-1.a.2-1.a.3"
**.R_1_a_3.ipcProcess[0].ipcAddress = "2"
**.R_1_a_3.ipcProcess[1].difName = "shim-1.a.3-1.a.5"
**.R_1_a_3.ipcProcess[1].ipcAddress = "1"
**.R_1_a_3.ipcProcess[2].difName = "shim-1.a.3-1.a.6"
**.R_1_a_3.ipcProcess[2].ipcAddress = "1"

**.R_1_a_4.relayIpc.ipcAddress = "1.a.4"
**.R_1_a_4.ipcProcess[0].difName = "shim-1.a.1-1.a.4"
**.R_1_a_4.ipcProcess[0].ipcAddress = "2"

**.R_1_a_5.relayIpc.ipcAddress = "1.a.5"
**.R_1_a_5.ipcProcess[0].difName = "shim-1.a.3-1.a.5"
**.R_1_a_5.ipcProcess[0].ipcAddress = "2"

**.R_1_a_6.relayIpc.ipcAddress = "1.a.6"
**.R_1_a_6.ipcProcess[0].difName = "shim-1.a.3-1.a.6"
**.R_1_a_6.ipcProcess[0].ipcAddress = "2"
**.R_1_a_6.ipcProcess[1].difName = "shim-1.a.6-1.a.7"
**.R_1_a_6.ipcProcess[1].ipcAddress = "1"

**.R_1_a_7.relayIpc.ipcAddress = "1.a.7"
**.R_1_a_7.ipcProcess[0].difName = "shim-1.a.6-1.a.7"
**.R_1_a_7.ipcProcess[0].ipcAddress = "2"
**.R_1_a_7.ipcProcess[1].difName = "shim-1.a.7-1.a.9"
**.R_1_a_7.ipcProcess[1].ipcAddress = "1"
**.R_1_a_7.ipcProcess[2].difName = "shim-1.a.7-1.a.a"
**.R_1_a_7.ipcProcess[2].ipcAddress = "1"

**.R_1_a_8.relayIpc.ipcAddress = "1.a.8"
**.R_1_a_8.ipcProcess[0].difName = "shim-1.a-1.a.8"
**.R_1_a_8.ipcProcess[0].ipcAddress = "2"

**.R_1_a_9.relayIpc.ipcAddress = "1.a.9"
**.R_1_a_9.ipcProcess[0].difName = "shim-1.a.7-1.a.9"
**.R_1_a_9.ipcProcess[0].ipcAddress = "2"

**.R_1_a_a.relayIpc.ipcAddress = "1.a.a"
**.R_1_a_a.ipcProcess[0].difName = "shim-1.a.7-1.a.a"
**.R_1_a_a.ipcProcess[0].ipcAddress = "2"

**.R_2.relayIpc.ipcAddress = "2"
**.R_2.ipcProcess[0].difName = "shim-1-2"
**.R_2.ipcProcess[0].ipcAddress = "2"
**.R_2.ipcProcess[1].difName = "shim-2-2.1"
**.R_2.ipcProcess[1].ipcAddress = "1"
**.R_2.ipcProcess[2].difName = "shim-2-2.2"
**.R_2.ipcProcess[2].ipcAddress = "1"
**.R_2.ipcProcess[3].difName = "shim-2-2.4"
**.R_2.ipcProcess[3].ipcAddress = "1"
**.R_2.ipcProcess[4].difName = "shim-2-3"
**.R_2.ipcProcess[4].ipcAddress = "1"
**.R_2.ipcProcess[5].difName = "shim-2-4"
**.R_2.ipcProcess[5].ipcAddress = "1"
**.R_2.ipcProcess[6].difName = "shim-2-7"
**.R_2.ipcProcess[6].ipcAddress = "1"
**.R_2.ipcProcess[7].difName = "shim-2-a"
**.R_2.ipcProcess[7].ipcAddress = "1"

**.R_2_1.relayIpc.ipcAddress = "2.1"
**.R_2_1.ipcProcess[0].difName = "shim-2-2.1"
**.R_2_1.ipcProcess[0].ipcAddress = "2"
**.R_2_1.ipcProcess[1].difName = "shim-2.1-2.1.1"
**.R_2_1.ipcProcess[1].ipcAddress = "1"
**.R_2_1.ipcProcess[2].difName = "shim-2.1-2.1.2"
**.R_2_1.ipcProcess[2].ipcAddress = "1"
**.R_2_1.ipcProcess[3].difName = "shim-2.1-2.1.4"
**.R_2_1.ipcProcess[3].ipcAddress = "1"
**.R_2_1.ipcProcess[4].difName = "shim-2.1-2.1.6"
**.R_2_1.ipcProcess[4].ipcAddress = "1"
**.R_2_1.ipcProcess[5].difName = "shim-2.1-2.3"
**.R_2_1.ipcProcess[5].ipcAddress = "1"
**.R_2_1.ipcProcess[6].difName = "shim-2.1-2.7"
**.R_2_1.ipcProcess[6].ipcAddress = "1"

**.R_2_1_1.relayIpc.ipcAddress = "2.1.1"
**.R_2_1_1.ipcProcess[0].difName = "shim-2.1-2.1.1"
**.R_2_1_1.ipcProcess[0].ipcAddress = "2"
**.R_2_1_1.ipcProcess[1].difName = "shim-2.1.1-2.1.3"
**.R_2_1_1.ipcProcess[1].ipcAddress = "1"

**.R_2_1_2.relayIpc.ipcAddress = "2.1.2"
**.R_2_1_2.ipcProcess[0].difName = "shim-2.1-2.1.2"
**.R_2_1_2.ipcProcess[0].ipcAddress = "2"

**.R_2_1_3.relayIpc.ipcAddress = "2.1.3"
**.R_2_1_3.ipcProcess[0].difName = "shim-2.1.1-2.1.3"
**.R_2_1_3.ipcProcess[0].ipcAddress = "2"
**.R_2_1_3.ipcProcess[1].difName = "shim-2.1.3-2.1.8"
**.R_2_1_3.ipcProcess[1].ipcAddress = "1"
**.R_2_1_3.ipcProcess[2].difName = "shim-2.1.3-2.1.a"
**.R_2_1_3.ipcProcess[2].ipcAddress = "1"

**.R_2_1_4.relayIpc.ipcAddress = "2.1.4"
**.R_2_1_4.ipcProcess[0].difName = "shim-2.1-2.1.4"
**.R_2_1_4.ipcProcess[0].ipcAddress = "2"
**.R_2_1_4.ipcProcess[1].difName = "shim-2.1.4-2.1.5"
**.R_2_1_4.ipcProcess[1].ipcAddress = "1"

**.R_2_1_5.relayIpc.ipcAddress = "2.1.5"
**.R_2_1_5.ipcProcess[0].difName = "shim-2.1.4-2.1.5"
**.R_2_1_5.ipcProcess[0].ipcAddress = "2"
**.R_2_1_5.ipcProcess[1].difName = "shim-2.1.5-2.1.7"
**.R_2_1_5.ipcProcess[1].ipcAddress = "1"

**.R_2_1_6.relayIpc.ipcAddress = "2.1.6"
**.R_2_1_6.ipcProcess[0].difName = "shim-2.1-2.1.6"
**.R_2_1_6.ipcProcess[0].ipcAddress = "2"

**.R_2_1_7.relayIpc.ipcAddress = "2.1.7"
**.R_2_1_7.ipcProcess[0].difName = "shim-2.1.5-2.1.7"
**.R_2_1_7.ipcProcess[0].ipcAddress = "2"

**.R_2_1_8.relayIpc.ipcAddress = "2.1.8"
**.R_2_1_8.ipcProcess[0].difName = "shim-2.1.3-2.1.8"
**.R_2_1_8.ipcProcess[0].ipcAddress = "2"
**.R_2_1_8.ipcProcess[1].difName = "shim-2.1.8-2.1.9"
**.R_2_1_8.ipcProcess[1].ipcAddress = "1"

**.R_2_1_9.relayIpc.ipcAddress = "2.1.9"
**.R_2_1_9.ipcProcess[0].difName = "shim-2.1.8-2.1.9"
**.R_2_1_9.ipcProcess[0].ipcAddress = "2"

**.R_2_1_a.relayIpc.ipcAddress = "2.1.a"
**.R_2_1_a.ipcProcess[0].difName = "shim-2.1.3-2.1.a"
**.R_2_1_a.ipcProcess[0].ipcAddress = "2"

**.R_2_2.relayIpc.ipcAddress = "2.2"
**.R_2_2.ipcProcess[0].difName = "shim-2-2.2"
**.R_2_2.ipcProcess[0].ipcAddress = "2"
**.R_2_2.ipcProcess[1].difName = "shim-2.2-2.2.1"
**.R_2_2.ipcProcess[1].ipcAddress = "1"
**.R_2_2.ipcProcess[2].difName = "shim-2.2-2.2.4"
**.R_2_2.ipcProcess[2].ipcAddress = "1"
**.R_2_2.ipcProcess[3].difName = "shim-2.2-2.9"
**.R_2_2.ipcProcess[3].ipcAddress = "1"

**.R_2_2_1.relayIpc.ipcAddress = "2.2.1"
**.R_2_2_1.ipcProcess[0].difName = "shim-2.2-2.2.1"
**.R_2_2_1.ipcProcess[0].ipcAddress = "2"
**.R_2_2_1.ipcProcess[1].difName = "shim-2.2.1-2.2.2"
**.R_2_2_1.ipcProcess[1].ipcAddress = "1"
**.R_2_2_1.ipcProcess[2].difName = "shim-2.2.1-2.2.3"
**.R_2_2_1.ipcProcess[2].ipcAddress = "1"

**.R_2_2_2.relayIpc.ipcAddress = "2.2.2"
**.R_2_2_2.ipcProcess[0].difName = "shim-2.2.1-2.2.2"
**.R_2_2_2.ipcProcess[0].ipcAddress = "2"
**.R_2_2_2.ipcProcess[1].difName = "shim-2.2.2-2.2.8"
**.R_2_2_2.ipcProcess[1].ipcAddress = "1"

**.R_2_2_3.relayIpc.ipcAddress = "2.2.3"
**.R_2_2_3.ipcProcess[0].difName = "shim-2.2.1-2.2.3"
**.R_2_2_3.ipcProcess[0].ipcAddress = "2"
**.R_2_2_3.ipcProcess[1].difName = "shim-2.2.3-2.2.7"
**.R_2_2_3.ipcProcess[1].ipcAddress = "1"

**.R_2_2_4.relayIpc.ipcAddress = "2.2.4"