[General]
network = DCloud
sim-time-limit =  5min

**.R*.relayIpc.difName = "NET"

**.R_1.relayIpc.ipcAddress = "1"
**.R_1.ipcProcess[0].difName = "shim-1-1.1"
**.R_1.ipcProcess[0].ipcAddress = "1"
**.R_1.ipcProcess[1].difName = "shim-1-1.2"
**.R_1.ipcProcess[1].ipcAddress = "1"
**.R_1.ipcProcess[2].difName = "shim-1-2"
**.R_1.ipcProcess[2].ipcAddress = "1"
**.R_1.ipcProcess[3].difName = "shim-1-3"
**.R_1.ipcProcess[3].ipcAddress = "1"

**.R_1_1.relayIpc.ipcAddress = "1.1"
**.R_1_1.ipcProcess[0].difName = "shim-1-1.1"
**.R_1_1.ipcProcess[0].ipcAddress = "2"
**.R_1_1.ipcProcess[1].difName = "shim-1.1-1.1.1"
**.R_1_1.ipcProcess[1].ipcAddress = "1"
**.R_1_1.ipcProcess[2].difName = "shim-1.1-1.1.2"
**.R_1_1.ipcProcess[2].ipcAddress = "1"
**.R_1_1.ipcProcess[3].difName = "shim-1.1-1.3"
**.R_1_1.ipcProcess[3].ipcAddress = "1"

**.R_1_1_1.relayIpc.ipcAddress = "1.1.1"
**.R_1_1_1.ipcProcess[0].difName = "shim-1.1-1.1.1"
**.R_1_1_1.ipcProcess[0].ipcAddress = "2"

**.R_1_1_2.relayIpc.ipcAddress = "1.1.2"
**.R_1_1_2.ipcProcess[0].difName = "shim-1.1-1.1.2"
**.R_1_1_2.ipcProcess[0].ipcAddress = "2"
**.R_1_1_2.ipcProcess[1].difName = "shim-1.1.2-1.1.3"
**.R_1_1_2.ipcProcess[1].ipcAddress = "1"

**.R_1_1_3.relayIpc.ipcAddress = "1.1.3"
**.R_1_1_3.ipcProcess[0].difName = "shim-1.1.2-1.1.3"
**.R_1_1_3.ipcProcess[0].ipcAddress = "2"

**.R_1_2.relayIpc.ipcAddress = "1.2"
**.R_1_2.ipcProcess[0].difName = "shim-1-1.2"
**.R_1_2.ipcProcess[0].ipcAddress = "2"
**.R_1_2.ipcProcess[1].difName = "shim-1.2-1.2.1"
**.R_1_2.ipcProcess[1].ipcAddress = "1"
**.R_1_2.ipcProcess[2].difName = "shim-1.2-1.2.2"
**.R_1_2.ipcProcess[2].ipcAddress = "1"

**.R_1_2_1.relayIpc.ipcAddress = "1.2.1"
**.R_1_2_1.ipcProcess[0].difName = "shim-1.2-1.2.1"
**.R_1_2_1.ipcProcess[0].ipcAddress = "2"
**.R_1_2_1.ipcProcess[1].difName = "shim-1.2.1-1.2.3"
**.R_1_2_1.ipcProcess[1].ipcAddress = "1"

**.R_1_2_2.relayIpc.ipcAddress = "1.2.2"
**.R_1_2_2.ipcProcess[0].difName = "shim-1.2-1.2.2"
**.R_1_2_2.ipcProcess[0].ipcAddress = "2"

**.R_1_2_3.relayIpc.ipcAddress = "1.2.3"
**.R_1_2_3.ipcProcess[0].difName = "shim-1.2.1-1.2.3"
**.R_1_2_3.ipcProcess[0].ipcAddress = "2"

**.R_1_3.relayIpc.ipcAddress = "1.3"
**.R_1_3.ipcProcess[0].difName = "shim-1.1-1.3"
**.R_1_3.ipcProcess[0].ipcAddress = "2"
**.R_1_3.ipcProcess[1].difName = "shim-1.3-1.3.1"
**.R_1_3.ipcProcess[1].ipcAddress = "1"
**.R_1_3.ipcProcess[2].difName = "shim-1.3-1.3.2"
**.R_1_3.ipcProcess[2].ipcAddress = "1"

**.R_1_3_1.relayIpc.ipcAddress = "1.3.1"
**.R_1_3_1.ipcProcess[0].difName = "shim-1.3-1.3.1"
**.R_1_3_1.ipcProcess[0].ipcAddress = "2"
**.R_1_3_1.ipcProcess[1].difName = "shim-1.3.1-1.3.3"
**.R_1_3_1.ipcProcess[1].ipcAddress = "1"

**.R_1_3_2.relayIpc.ipcAddress = "1.3.2"
**.R_1_3_2.ipcProcess[0].difName = "shim-1.3-1.3.2"
**.R_1_3_2.ipcProcess[0].ipcAddress = "2"

**.R_1_3_3.relayIpc.ipcAddress = "1.3.3"
**.R_1_3_3.ipcProcess[0].difName = "shim-1.3.1-1.3.3"
**.R_1_3_3.ipcProcess[0].ipcAddress = "2"

**.R_2.relayIpc.ipcAddress = "2"
**.R_2.ipcProcess[0].difName = "shim-1-2"
**.R_2.ipcProcess[0].ipcAddress = "2"
**.R_2.ipcProcess[1].difName = "shim-2-2.1"
**.R_2.ipcProcess[1].ipcAddress = "1"

**.R_2_1.relayIpc.ipcAddress = "2.1"
**.R_2_1.ipcProcess[0].difName = "shim-2-2.1"
**.R_2_1.ipcProcess[0].ipcAddress = "2"
**.R_2_1.ipcProcess[1].difName = "shim-2.1-2.1.1"
**.R_2_1.ipcProcess[1].ipcAddress = "1"
**.R_2_1.ipcProcess[2].difName = "shim-2.1-2.2"
**.R_2_1.ipcProcess[2].ipcAddress = "1"

**.R_2_1_1.relayIpc.ipcAddress = "2.1.1"
**.R_2_1_1.ipcProcess[0].difName = "shim-2.1-2.1.1"
**.R_2_1_1.ipcProcess[0].ipcAddress = "2"
**.R_2_1_1.ipcProcess[1].difName = "shim-2.1.1-2.1.2"
**.R_2_1_1.ipcProcess[1].ipcAddress = "1"

**.R_2_1_2.relayIpc.ipcAddress = "2.1.2"
**.R_2_1_2.ipcProcess[0].difName = "shim-2.1.1-2.1.2"
**.R_2_1_2.ipcProcess[0].ipcAddress = "2"
**.R_2_1_2.ipcProcess[1].difName = "shim-2.1.2-2.1.3"
**.R_2_1_2.ipcProcess[1].ipcAddress = "1"

**.R_2_1_3.relayIpc.ipcAddress = "2.1.3"
**.R_2_1_3.ipcProcess[0].difName = "shim-2.1.2-2.1.3"
**.R_2_1_3.ipcProcess[0].ipcAddress = "2"

**.R_2_2.relayIpc.ipcAddress = "2.2"
**.R_2_2.ipcProcess[0].difName = "shim-2.1-2.2"
**.R_2_2.ipcProcess[0].ipcAddress = "2"
**.R_2_2.ipcProcess[1].difName = "shim-2.2-2.2.1"
**.R_2_2.ipcProcess[1].ipcAddress = "1"
**.R_2_2.ipcProcess[2].difName = "shim-2.2-2.3"
**.R_2_2.ipcProcess[2].ipcAddress = "1"

**.R_2_2_1.relayIpc.ipcAddress = "2.2.1"
**.R_2_2_1.ipcProcess[0].difName = "shim-2.2-2.2.1"
**.R_2_2_1.ipcProcess[0].ipcAddress = "2"
**.R_2_2_1.ipcProcess[1].difName = "shim-2.2.1-2.2.2"
**.R_2_2_1.ipcProcess[1].ipcAddress = "1"

**.R_2_2_2.relayIpc.ipcAddress = "2.2.2"
**.R_2_2_2.ipcProcess[0].difName = "shim-2.2.1-2.2.2"
**.R_2_2_2.ipcProcess[0].ipcAddress = "2"
**.R_2_2_2.ipcProcess[1].difName = "shim-2.2.2-2.2.3"
**.R_2_2_2.ipcProcess[1].ipcAddress = "1"

**.R_2_2_3.relayIpc.ipcAddress = "2.2.3"
**.R_2_2_3.ipcProcess[0].difName = "shim-2.2.2-2.2.3"
**.R_2_2_3.ipcProcess[0].ipcAddress = "2"

**.R_2_3.relayIpc.ipcAddress = "2.3"
**.R_2_3.ipcProcess[0].difName = "shim-2.2-2.3"
**.R_2_3.ipcProcess[0].ipcAddress = "2"
**.R_2_3.ipcProcess[1].difName = "shim-2.3-2.3.1"
**.R_2_3.ipcProcess[1].ipcAddress = "1"
**.R_2_3.ipcProcess[2].difName = "shim-2.3-2.3.2"
**.R_2_3.ipcProcess[2].ipcAddress = "1"

**.R_2_3_1.relayIpc.ipcAddress = "2.3.1"
**.R_2_3_1.ipcProcess[0].difName = "shim-2.3-2.3.1"
**.R_2_3_1.ipcProcess[0].ipcAddress = "2"
**.R_2_3_1.ipcProcess[1].difName = "shim-2.3.1-2.3.3"
**.R_2_3_1.ipcProcess[1].ipcAddress = "1"

**.R_2_3_2.relayIpc.ipcAddress = "2.3.2"
**.R_2_3_2.ipcProcess[0].difName = "shim-2.3-2.3.2"
**.R_2_3_2.ipcProcess[0].ipcAddress = "2"

**.R_2_3_3.relayIpc.ipcAddress = "2.3.3"
**.R_2_3_3.ipcProcess[0].difName = "shim-2.3.1-2.3.3"
**.R_2_3_3.ipcProcess[0].ipcAddress = "2"

**.R_3.relayIpc.ipcAddress = "3"
**.R_3.ipcProcess[0].difName = "shim-1-3"
**.R_3.ipcProcess[0].ipcAddress = "2"
**.R_3.ipcProcess[1].difName = "shim-3-3.1"
**.R_3.ipcProcess[1].ipcAddress = "1"
**.R_3.ipcProcess[2].difName = "shim-3-3.3"
**.R_3.ipcProcess[2].ipcAddress = "1"

**.R_3_1.relayIpc.ipcAddress = "3.1"
**.R_3_1.ipcProcess[0].difName = "shim-3-3.1"
**.R_3_1.ipcProcess[0].ipcAddress = "2"
**.R_3_1.ipcProcess[1].difName = "shim-3.1-3.1.1"
**.R_3_1.ipcProcess[1].ipcAddress = "1"
**.R_3_1.ipcProcess[2].difName = "shim-3.1-3.2"
**.R_3_1.ipcProcess[2].ipcAddress = "1"

**.R_3_1_1.relayIpc.ipcAddress = "3.1.1"
**.R_3_1_1.ipcProcess[0].difName = "shim-3.1-3.1.1"
**.R_3_1_1.ipcProcess[0].ipcAddress = "2"
**.R_3_1_1.ipcProcess[1].difName = "shim-3.1.1-3.1.2"
**.R_3_1_1.ipcProcess[1].ipcAddress = "1"

**.R_3_1_2.relayIpc.ipcAddress = "3.1.2"
**.R_3_1_2.ipcProcess[0].difName = "shim-3.1.1-3.1.2"
**.R_3_1_2.ipcProcess[0].ipcAddress = "2"
**.R_3_1_2.ipcProcess[1].difName = "shim-3.1.2-3.1.3"
**.R_3_1_2.ipcProcess[1].ipcAddress = "1"

**.R_3_1_3.relayIpc.ipcAddress = "3.1.3"
**.R_3_1_3.ipcProcess[0].difName = "shim-3.1.2-3.1.3"
**.R_3_1_3.ipcProcess[0].ipcAddress = "2"

**.R_3_2.relayIpc.ipcAddress = "3.2"
**.R_3_2.ipcProcess[0].difName = "shim-3.1-3.2"
**.R_3_2.ipcProcess[0].ipcAddress = "2"
**.R_3_2.ipcProcess[1].difName = "shim-3.2-3.2.1"
**.R_3_2.ipcProcess[1].ipcAddress = "1"

**.R_3_2_1.relayIpc.ipcAddress = "3.2.1"
**.R_3_2_1.ipcProcess[0].difName = "shim-3.2-3.2.1"
**.R_3_2_1.ipcProcess[0].ipcAddress = "2"
**.R_3_2_1.ipcProcess[1].difName = "shim-3.2.1-3.2.2"
**.R_3_2_1.ipcProcess[1].ipcAddress = "1"

**.R_3_2_2.relayIpc.ipcAddress = "3.2.2"
**.R_3_2_2.ipcProcess[0].difName = "shim-3.2.1-3.2.2"
**.R_3_2_2.ipcProcess[0].ipcAddress = "2"
**.R_3_2_2.ipcProcess[1].difName = "shim-3.2.2-3.2.3"
**.R_3_2_2.ipcProcess[1].ipcAddress = "1"

**.R_3_2_3.relayIpc.ipcAddress = "3.2.3"
**.R_3_2_3.ipcProcess[0].difName = "shim-3.2.2-3.2.3"
**.R_3_2_3.ipcProcess[0].ipcAddress = "2"

**.R_3_3.relayIpc.ipcAddress = "3.3"
**.R_3_3.ipcProcess[0].difName = "shim-3-3.3"
**.R_3_3.ipcProcess[0].ipcAddress = "2"
**.R_3_3.ipcProcess[1].difName = "shim-3.3-3.3.1"
**.R_3_3.ipcProcess[1].ipcAddress = "1"

**.R_3_3_1.relayIpc.ipcAddress = "3.3.1"
**.R_3_3_1.ipcProcess[0].difName = "shim-3.3-3.3.1"
**.R_3_3_1.ipcProcess[0].ipcAddress = "2"
**.R_3_3_1.ipcProcess[1].difName = "shim-3.3.1-3.3.2"
**.R_3_3_1.ipcProcess[1].ipcAddress = "1"

**.R_3_3_2.relayIpc.ipcAddress = "3.3.2"
**.R_3_3_2.ipcProcess[0].difName = "shim-3.3.1-3.3.2"
**.R_3_3_2.ipcProcess[0].ipcAddress = "2"
**.R_3_3_2.ipcProcess[1].difName = "shim-3.3.2-3.3.3"
**.R_3_3_2.ipcProcess[1].ipcAddress = "1"

**.R_3_3_3.relayIpc.ipcAddress = "3.3.3"
**.R_3_3_3.ipcProcess[0].difName = "shim-3.3.2-3.3.3"
**.R_3_3_3.ipcProcess[0].ipcAddress = "2"




**.flowAllocator.newFlowReqPolicyType = "MinComparer"
**.ra.qoscubesData = xmldoc("QoS.xml", "Configuration/QoSCubesSet")
**.difAllocator.configData = xmldoc("config.xml", "Configuration/DA")
**.difAllocator.directory.configData = xmldoc("config.xml", "Configuration/DA")
**.ra.preallocation = xmldoc("connections.xml", "Configuration/ConnectionSet")

**.relayIpc.resourceAllocator.pdufgPolicyName = "HierarchicalGenerator"
**.relayIpc.routingPolicyName = "TDomainRouting"
**.relayIpc.relayAndMux.ForwardingPolicyName = "HierarchicalTable"
**.R_1_3_2.**.routingPolicy.printAtEnd = true
**.printAtEnd = false



