[General]
network = DCloud
sim-time-limit =  5min

**.R*.relayIpc.difName = "NET"

**.R_1.relayIpc.ipcAddress = "1"
**.R_1.ipcProcess[0].difName = "shim-1-1.1"
**.R_1.ipcProcess[0].ipcAddress = "1"
**.R_1.ipcProcess[1].difName = "shim-1-1.4"
**.R_1.ipcProcess[1].ipcAddress = "1"
**.R_1.ipcProcess[2].difName = "shim-1-2"
**.R_1.ipcProcess[2].ipcAddress = "1"
**.R_1.ipcProcess[3].difName = "shim-1-3"
**.R_1.ipcProcess[3].ipcAddress = "1"

**.R_1_1.relayIpc.ipcAddress = "1.1"
**.R_1_1.ipcProcess[0].difName = "shim-1-1.1"
**.R_1_1.ipcProcess[0].ipcAddress = "2"
**.R_1_1.ipcProcess[1].difName = "shim-1.1-1.1.3"
**.R_1_1.ipcProcess[1].ipcAddress = "1"
**.R_1_1.ipcProcess[2].difName = "shim-1.1-1.1.4"
**.R_1_1.ipcProcess[2].ipcAddress = "1"
**.R_1_1.ipcProcess[3].difName = "shim-1.1-1.4"
**.R_1_1.ipcProcess[3].ipcAddress = "1"

**.R_1_1_1.relayIpc.ipcAddress = "1.1.1"
**.R_1_1_1.ipcProcess[0].difName = "shim-1.1.1-1.1.3"
**.R_1_1_1.ipcProcess[0].ipcAddress = "1"

**.R_1_1_2.relayIpc.ipcAddress = "1.1.2"
**.R_1_1_2.ipcProcess[0].difName = "shim-1.1.2-1.1.5"
**.R_1_1_2.ipcProcess[0].ipcAddress = "1"

**.R_1_1_3.relayIpc.ipcAddress = "1.1.3"
**.R_1_1_3.ipcProcess[0].difName = "shim-1.1-1.1.3"
**.R_1_1_3.ipcProcess[0].ipcAddress = "2"
**.R_1_1_3.ipcProcess[1].difName = "shim-1.1.1-1.1.3"
**.R_1_1_3.ipcProcess[1].ipcAddress = "2"
**.R_1_1_3.ipcProcess[2].difName = "shim-1.1.3-1.1.5"
**.R_1_1_3.ipcProcess[2].ipcAddress = "1"

**.R_1_1_4.relayIpc.ipcAddress = "1.1.4"
**.R_1_1_4.ipcProcess[0].difName = "shim-1.1-1.1.4"
**.R_1_1_4.ipcProcess[0].ipcAddress = "2"
**.R_1_1_4.ipcProcess[1].difName = "shim-1.1.4-1.1.5"
**.R_1_1_4.ipcProcess[1].ipcAddress = "1"

**.R_1_1_5.relayIpc.ipcAddress = "1.1.5"
**.R_1_1_5.ipcProcess[0].difName = "shim-1.1.2-1.1.5"
**.R_1_1_5.ipcProcess[0].ipcAddress = "2"
**.R_1_1_5.ipcProcess[1].difName = "shim-1.1.3-1.1.5"
**.R_1_1_5.ipcProcess[1].ipcAddress = "2"
**.R_1_1_5.ipcProcess[2].difName = "shim-1.1.4-1.1.5"
**.R_1_1_5.ipcProcess[2].ipcAddress = "2"

**.R_1_2.relayIpc.ipcAddress = "1.2"
**.R_1_2.ipcProcess[0].difName = "shim-1.2-1.2.3"
**.R_1_2.ipcProcess[0].ipcAddress = "1"
**.R_1_2.ipcProcess[1].difName = "shim-1.2-1.3"
**.R_1_2.ipcProcess[1].ipcAddress = "1"

**.R_1_2_1.relayIpc.ipcAddress = "1.2.1"
**.R_1_2_1.ipcProcess[0].difName = "shim-1.2.1-1.2.3"
**.R_1_2_1.ipcProcess[0].ipcAddress = "1"
**.R_1_2_1.ipcProcess[1].difName = "shim-1.2.1-1.2.4"
**.R_1_2_1.ipcProcess[1].ipcAddress = "1"
**.R_1_2_1.ipcProcess[2].difName = "shim-1.2.1-1.2.5"
**.R_1_2_1.ipcProcess[2].ipcAddress = "1"

**.R_1_2_2.relayIpc.ipcAddress = "1.2.2"
**.R_1_2_2.ipcProcess[0].difName = "shim-1.2.2-1.2.4"
**.R_1_2_2.ipcProcess[0].ipcAddress = "1"

**.R_1_2_3.relayIpc.ipcAddress = "1.2.3"
**.R_1_2_3.ipcProcess[0].difName = "shim-1.2-1.2.3"
**.R_1_2_3.ipcProcess[0].ipcAddress = "2"
**.R_1_2_3.ipcProcess[1].difName = "shim-1.2.1-1.2.3"
**.R_1_2_3.ipcProcess[1].ipcAddress = "2"

**.R_1_2_4.relayIpc.ipcAddress = "1.2.4"
**.R_1_2_4.ipcProcess[0].difName = "shim-1.2.1-1.2.4"
**.R_1_2_4.ipcProcess[0].ipcAddress = "2"
**.R_1_2_4.ipcProcess[1].difName = "shim-1.2.2-1.2.4"
**.R_1_2_4.ipcProcess[1].ipcAddress = "2"
**.R_1_2_4.ipcProcess[2].difName = "shim-1.2.4-1.2.5"
**.R_1_2_4.ipcProcess[2].ipcAddress = "1"

**.R_1_2_5.relayIpc.ipcAddress = "1.2.5"
**.R_1_2_5.ipcProcess[0].difName = "shim-1.2.1-1.2.5"
**.R_1_2_5.ipcProcess[0].ipcAddress = "2"
**.R_1_2_5.ipcProcess[1].difName = "shim-1.2.4-1.2.5"
**.R_1_2_5.ipcProcess[1].ipcAddress = "2"

**.R_1_3.relayIpc.ipcAddress = "1.3"
**.R_1_3.ipcProcess[0].difName = "shim-1.2-1.3"
**.R_1_3.ipcProcess[0].ipcAddress = "2"
**.R_1_3.ipcProcess[1].difName = "shim-1.3-1.3.1"
**.R_1_3.ipcProcess[1].ipcAddress = "1"
**.R_1_3.ipcProcess[2].difName = "shim-1.3-1.3.2"
**.R_1_3.ipcProcess[2].ipcAddress = "1"
**.R_1_3.ipcProcess[3].difName = "shim-1.3-1.3.3"
**.R_1_3.ipcProcess[3].ipcAddress = "1"
**.R_1_3.ipcProcess[4].difName = "shim-1.3-1.3.4"
**.R_1_3.ipcProcess[4].ipcAddress = "1"
**.R_1_3.ipcProcess[5].difName = "shim-1.3-1.4"
**.R_1_3.ipcProcess[5].ipcAddress = "1"

**.R_1_3_1.relayIpc.ipcAddress = "1.3.1"
**.R_1_3_1.ipcProcess[0].difName = "shim-1.3-1.3.1"
**.R_1_3_1.ipcProcess[0].ipcAddress = "2"

**.R_1_3_2.relayIpc.ipcAddress = "1.3.2"
**.R_1_3_2.ipcProcess[0].difName = "shim-1.3-1.3.2"
**.R_1_3_2.ipcProcess[0].ipcAddress = "2"
**.R_1_3_2.ipcProcess[1].difName = "shim-1.3.2-1.3.5"
**.R_1_3_2.ipcProcess[1].ipcAddress = "1"

**.R_1_3_3.relayIpc.ipcAddress = "1.3.3"
**.R_1_3_3.ipcProcess[0].difName = "shim-1.3-1.3.3"
**.R_1_3_3.ipcProcess[0].ipcAddress = "2"

**.R_1_3_4.relayIpc.ipcAddress = "1.3.4"
**.R_1_3_4.ipcProcess[0].difName = "shim-1.3-1.3.4"
**.R_1_3_4.ipcProcess[0].ipcAddress = "2"
**.R_1_3_4.ipcProcess[1].difName = "shim-1.3.4-1.3.5"
**.R_1_3_4.ipcProcess[1].ipcAddress = "1"

**.R_1_3_5.relayIpc.ipcAddress = "1.3.5"
**.R_1_3_5.ipcProcess[0].difName = "shim-1.3.2-1.3.5"
**.R_1_3_5.ipcProcess[0].ipcAddress = "2"
**.R_1_3_5.ipcProcess[1].difName = "shim-1.3.4-1.3.5"
**.R_1_3_5.ipcProcess[1].ipcAddress = "2"

**.R_1_4.relayIpc.ipcAddress = "1.4"
**.R_1_4.ipcProcess[0].difName = "shim-1-1.4"
**.R_1_4.ipcProcess[0].ipcAddress = "2"
**.R_1_4.ipcProcess[1].difName = "shim-1.1-1.4"
**.R_1_4.ipcProcess[1].ipcAddress = "2"
**.R_1_4.ipcProcess[2].difName = "shim-1.3-1.4"
**.R_1_4.ipcProcess[2].ipcAddress = "2"
**.R_1_4.ipcProcess[3].difName = "shim-1.4-1.4.2"
**.R_1_4.ipcProcess[3].ipcAddress = "1"
**.R_1_4.ipcProcess[4].difName = "shim-1.4-1.4.3"
**.R_1_4.ipcProcess[4].ipcAddress = "1"

**.R_1_4_1.relayIpc.ipcAddress = "1.4.1"
**.R_1_4_1.ipcProcess[0].difName = "shim-1.4.1-1.4.4"
**.R_1_4_1.ipcProcess[0].ipcAddress = "1"

**.R_1_4_2.relayIpc.ipcAddress = "1.4.2"
**.R_1_4_2.ipcProcess[0].difName = "shim-1.4-1.4.2"
**.R_1_4_2.ipcProcess[0].ipcAddress = "2"
**.R_1_4_2.ipcProcess[1].difName = "shim-1.4.2-1.4.3"
**.R_1_4_2.ipcProcess[1].ipcAddress = "1"
**.R_1_4_2.ipcProcess[2].difName = "shim-1.4.2-1.4.4"
**.R_1_4_2.ipcProcess[2].ipcAddress = "1"
**.R_1_4_2.ipcProcess[3].difName = "shim-1.4.2-1.4.5"
**.R_1_4_2.ipcProcess[3].ipcAddress = "1"

**.R_1_4_3.relayIpc.ipcAddress = "1.4.3"
**.R_1_4_3.ipcProcess[0].difName = "shim-1.4-1.4.3"
**.R_1_4_3.ipcProcess[0].ipcAddress = "2"
**.R_1_4_3.ipcProcess[1].difName = "shim-1.4.2-1.4.3"
**.R_1_4_3.ipcProcess[1].ipcAddress = "2"
**.R_1_4_3.ipcProcess[2].difName = "shim-1.4.3-1.4.4"
**.R_1_4_3.ipcProcess[2].ipcAddress = "1"

**.R_1_4_4.relayIpc.ipcAddress = "1.4.4"
**.R_1_4_4.ipcProcess[0].difName = "shim-1.4.1-1.4.4"
**.R_1_4_4.ipcProcess[0].ipcAddress = "2"
**.R_1_4_4.ipcProcess[1].difName = "shim-1.4.2-1.4.4"
**.R_1_4_4.ipcProcess[1].ipcAddress = "2"
**.R_1_4_4.ipcProcess[2].difName = "shim-1.4.3-1.4.4"
**.R_1_4_4.ipcProcess[2].ipcAddress = "2"

**.R_1_4_5.relayIpc.ipcAddress = "1.4.5"
**.R_1_4_5.ipcProcess[0].difName = "shim-1.4.2-1.4.5"
**.R_1_4_5.ipcProcess[0].ipcAddress = "2"

**.R_2.relayIpc.ipcAddress = "2"
**.R_2.ipcProcess[0].difName = "shim-1-2"
**.R_2.ipcProcess[0].ipcAddress = "2"
**.R_2.ipcProcess[1].difName = "shim-2-2.2"
**.R_2.ipcProcess[1].ipcAddress = "1"
**.R_2.ipcProcess[2].difName = "shim-2-2.4"
**.R_2.ipcProcess[2].ipcAddress = "1"
**.R_2.ipcProcess[3].difName = "shim-2-3"
**.R_2.ipcProcess[3].ipcAddress = "1"

**.R_2_1.relayIpc.ipcAddress = "2.1"
**.R_2_1.ipcProcess[0].difName = "shim-2.1-2.1.1"
**.R_2_1.ipcProcess[0].ipcAddress = "1"
**.R_2_1.ipcProcess[1].difName = "shim-2.1-2.1.2"
**.R_2_1.ipcProcess[1].ipcAddress = "1"
**.R_2_1.ipcProcess[2].difName = "shim-2.1-2.4"
**.R_2_1.ipcProcess[2].ipcAddress = "1"

**.R_2_1_1.relayIpc.ipcAddress = "2.1.1"
**.R_2_1_1.ipcProcess[0].difName = "shim-2.1-2.1.1"
**.R_2_1_1.ipcProcess[0].ipcAddress = "2"
**.R_2_1_1.ipcProcess[1].difName = "shim-2.1.1-2.1.3"
**.R_2_1_1.ipcProcess[1].ipcAddress = "1"
**.R_2_1_1.ipcProcess[2].difName = "shim-2.1.1-2.1.5"
**.R_2_1_1.ipcProcess[2].ipcAddress = "1"

**.R_2_1_2.relayIpc.ipcAddress = "2.1.2"
**.R_2_1_2.ipcProcess[0].difName = "shim-2.1-2.1.2"
**.R_2_1_2.ipcProcess[0].ipcAddress = "2"
**.R_2_1_2.ipcProcess[1].difName = "shim-2.1.2-2.1.4"
**.R_2_1_2.ipcProcess[1].ipcAddress = "1"

**.R_2_1_3.relayIpc.ipcAddress = "2.1.3"
**.R_2_1_3.ipcProcess[0].difName = "shim-2.1.1-2.1.3"
**.R_2_1_3.ipcProcess[0].ipcAddress = "2"
**.R_2_1_3.ipcProcess[1].difName = "shim-2.1.3-2.1.5"
**.R_2_1_3.ipcProcess[1].ipcAddress = "1"

**.R_2_1_4.relayIpc.ipcAddress = "2.1.4"
**.R_2_1_4.ipcProcess[0].difName = "shim-2.1.2-2.1.4"
**.R_2_1_4.ipcProcess[0].ipcAddress = "2"

**.R_2_1_5.relayIpc.ipcAddress = "2.1.5"
**.R_2_1_5.ipcProcess[0].difName = "shim-2.1.1-2.1.5"
**.R_2_1_5.ipcProcess[0].ipcAddress = "2"
**.R_2_1_5.ipcProcess[1].difName = "shim-2.1.3-2.1.5"
**.R_2_1_5.ipcProcess[1].ipcAddress = "2"

**.R_2_2.relayIpc.ipcAddress = "2.2"
**.R_2_2.ipcProcess[0].difName = "shim-2-2.2"
**.R_2_2.ipcProcess[0].ipcAddress = "2"
**.R_2_2.ipcProcess[1].difName = "shim-2.2-2.2.2"
**.R_2_2.ipcProcess[1].ipcAddress = "1"
**.R_2_2.ipcProcess[2].difName = "shim-2.2-2.2.4"
**.R_2_2.ipcProcess[2].ipcAddress = "1"
**.R_2_2.ipcProcess[3].difName = "shim-2.2-2.3"
**.R_2_2.ipcProcess[3].ipcAddress = "1"

**.R_2_2_1.relayIpc.ipcAddress = "2.2.1"
**.R_2_2_1.ipcProcess[0].difName = "shim-2.2.1-2.2.4"
**.R_2_2_1.ipcProcess[0].ipcAddress = "1"

**.R_2_2_2.relayIpc.ipcAddress = "2.2.2"
**.R_2_2_2.ipcProcess[0].difName = "shim-2.2-2.2.2"
**.R_2_2_2.ipcProcess[0].ipcAddress = "2"
**.R_2_2_2.ipcProcess[1].difName = "shim-2.2.2-2.2.3"
**.R_2_2_2.ipcProcess[1].ipcAddress = "1"

**.R_2_2_3.relayIpc.ipcAddress = "2.2.3"
**.R_2_2_3.ipcProcess[0].difName = "shim-2.2.2-2.2.3"
**.R_2_2_3.ipcProcess[0].ipcAddress = "2"
**.R_2_2_3.ipcProcess[1].difName = "shim-2.2.3-2.2.5"
**.R_2_2_3.ipcProcess[1].ipcAddress = "1"

**.R_2_2_4.relayIpc.ipcAddress = "2.2.4"
**.R_2_2_4.ipcProcess[0].difName = "shim-2.2-2.2.4"
**.R_2_2_4.ipcProcess[0].ipcAddress = "2"
**.R_2_2_4.ipcProcess[1].difName = "shim-2.2.1-2.2.4"
**.R_2_2_4.ipcProcess[1].ipcAddress = "2"
**.R_2_2_4.ipcProcess[2].difName = "shim-2.2.4-2.2.5"
**.R_2_2_4.ipcProcess[2].ipcAddress = "1"

**.R_2_2_5.relayIpc.ipcAddress = "2.2.5"
**.R_2_2_5.ipcProcess[0].difName = "shim-2.2.3-2.2.5"
**.R_2_2_5.ipcProcess[0].ipcAddress = "2"
**.R_2_2_5.ipcProcess[1].difName = "shim-2.2.4-2.2.5"
**.R_2_2_5.ipcProcess[1].ipcAddress = "2"

**.R_2_3.relayIpc.ipcAddress = "2.3"
**.R_2_3.ipcProcess[0].difName = "shim-2.2-2.3"
**.R_2_3.ipcProcess[0].ipcAddress = "2"
**.R_2_3.ipcProcess[1].difName = "shim-2.3-2.3.1"
**.R_2_3.ipcProcess[1].ipcAddress = "1"
**.R_2_3.ipcProcess[2].difName = "shim-2.3-2.3.2"
**.R_2_3.ipcProcess[2].ipcAddress = "1"
**.R_2_3.ipcProcess[3].difName = "shim-2.3-2.3.3"
**.R_2_3.ipcProcess[3].ipcAddress = "1"
**.R_2_3.ipcProcess[4].difName = "shim-2.3-2.4"
**.R_2_3.ipcProcess[4].ipcAddress = "1"

**.R_2_3_1.relayIpc.ipcAddress = "2.3.1"
**.R_2_3_1.ipcProcess[0].difName = "shim-2.3-2.3.1"
**.R_2_3_1.ipcProcess[0].ipcAddress = "2"
**.R_2_3_1.ipcProcess[1].difName = "shim-2.3.1-2.3.2"
**.R_2_3_1.ipcProcess[1].ipcAddress = "1"
**.R_2_3_1.ipcProcess[2].difName = "shim-2.3.1-2.3.5"
**.R_2_3_1.ipcProcess[2].ipcAddress = "1"

**.R_2_3_2.relayIpc.ipcAddress = "2.3.2"
**.R_2_3_2.ipcProcess[0].difName = "shim-2.3-2.3.2"
**.R_2_3_2.ipcProcess[0].ipcAddress = "2"
**.R_2_3_2.ipcProcess[1].difName = "shim-2.3.1-2.3.2"
**.R_2_3_2.ipcProcess[1].ipcAddress = "2"
**.R_2_3_2.ipcProcess[2].difName = "shim-2.3.2-2.3.4"
**.R_2_3_2.ipcProcess[2].ipcAddress = "1"

**.R_2_3_3.relayIpc.ipcAddress = "2.3.3"
**.R_2_3_3.ipcProcess[0].difName = "shim-2.3-2.3.3"
**.R_2_3_3.ipcProcess[0].ipcAddress = "2"

**.R_2_3_4.relayIpc.ipcAddress = "2.3.4"
**.R_2_3_4.ipcProcess[0].difName = "shim-2.3.2-2.3.4"
**.R_2_3_4.ipcProcess[0].ipcAddress = "2"

**.R_2_3_5.relayIpc.ipcAddress = "2.3.5"
**.R_2_3_5.ipcProcess[0].difName = "shim-2.3.1-2.3.5"
**.R_2_3_5.ipcProcess[0].ipcAddress = "2"

**.R_2_4.relayIpc.ipcAddress = "2.4"
**.R_2_4.ipcProcess[0].difName = "shim-2-2.4"
**.R_2_4.ipcProcess[0].ipcAddress = "2"
**.R_2_4.ipcProcess[1].difName = "shim-2.1-2.4"
**.R_2_4.ipcProcess[1].ipcAddress = "2"
**.R_2_4.ipcProcess[2].difName = "shim-2.3-2.4"
**.R_2_4.ipcProcess[2].ipcAddress = "2"
**.R_2_4.ipcProcess[3].difName = "shim-2.4-2.4.3"
**.R_2_4.ipcProcess[3].ipcAddress = "1"

**.R_2_4_1.relayIpc.ipcAddress = "2.4.1"
**.R_2_4_1.ipcProcess[0].difName = "shim-2.4.1-2.4.3"
**.R_2_4_1.ipcProcess[0].ipcAddress = "1"
**.R_2_4_1.ipcProcess[1].difName = "shim-2.4.1-2.4.4"
**.R_2_4_1.ipcProcess[1].ipcAddress = "1"
**.R_2_4_1.ipcProcess[2].difName = "shim-2.4.1-2.4.5"
**.R_2_4_1.ipcProcess[2].ipcAddress = "1"

**.R_2_4_2.relayIpc.ipcAddress = "2.4.2"
**.R_2_4_2.ipcProcess[0].difName = "shim-2.4.2-2.4.4"
**.R_2_4_2.ipcProcess[0].ipcAddress = "1"

**.R_2_4_3.relayIpc.ipcAddress = "2.4.3"
**.R_2_4_3.ipcProcess[0].difName = "shim-2.4-2.4.3"
**.R_2_4_3.ipcProcess[0].ipcAddress = "2"
**.R_2_4_3.ipcProcess[1].difName = "shim-2.4.1-2.4.3"
**.R_2_4_3.ipcProcess[1].ipcAddress = "2"
**.R_2_4_3.ipcProcess[2].difName = "shim-2.4.3-2.4.4"
**.R_2_4_3.ipcProcess[2].ipcAddress = "1"

**.R_2_4_4.relayIpc.ipcAddress = "2.4.4"
**.R_2_4_4.ipcProcess[0].difName = "shim-2.4.1-2.4.4"
**.R_2_4_4.ipcProcess[0].ipcAddress = "2"
**.R_2_4_4.ipcProcess[1].difName = "shim-2.4.2-2.4.4"
**.R_2_4_4.ipcProcess[1].ipcAddress = "2"
**.R_2_4_4.ipcProcess[2].difName = "shim-2.4.3-2.4.4"
**.R_2_4_4.ipcProcess[2].ipcAddress = "2"

**.R_2_4_5.relayIpc.ipcAddress = "2.4.5"
**.R_2_4_5.ipcProcess[0].difName = "shim-2.4.1-2.4.5"
**.R_2_4_5.ipcProcess[0].ipcAddress = "2"

**.R_3.relayIpc.ipcAddress = "3"
**.R_3.ipcProcess[0].difName = "shim-1-3"
**.R_3.ipcProcess[0].ipcAddress = "2"
**.R_3.ipcProcess[1].difName = "shim-2-3"
**.R_3.ipcProcess[1].ipcAddress = "2"
**.R_3.ipcProcess[2].difName = "shim-3-3.2"
**.R_3.ipcProcess[2].ipcAddress = "1"
**.R_3.ipcProcess[3].difName = "shim-3-3.4"
**.R_3.ipcProcess[3].ipcAddress = "1"

**.R_3_1.relayIpc.ipcAddress = "3.1"
**.R_3_1.ipcProcess[0].difName = "shim-3.1-3.1.4"
**.R_3_1.ipcProcess[0].ipcAddress = "1"
**.R_3_1.ipcProcess[1].difName = "shim-3.1-3.2"
**.R_3_1.ipcProcess[1].ipcAddress = "1"

**.R_3_1_1.relayIpc.ipcAddress = "3.1.1"
**.R_3_1_1.ipcProcess[0].difName = "shim-3.1.1-3.1.2"
**.R_3_1_1.ipcProcess[0].ipcAddress = "1"

**.R_3_1_2.relayIpc.ipcAddress = "3.1.2"
**.R_3_1_2.ipcProcess[0].difName = "shim-3.1.1-3.1.2"
**.R_3_1_2.ipcProcess[0].ipcAddress = "2"
**.R_3_1_2.ipcProcess[1].difName = "shim-3.1.2-3.1.3"
**.R_3_1_2.ipcProcess[1].ipcAddress = "1"

**.R_3_1_3.relayIpc.ipcAddress = "3.1.3"
**.R_3_1_3.ipcProcess[0].difName = "shim-3.1.2-3.1.3"
**.R_3_1_3.ipcProcess[0].ipcAddress = "2"
**.R_3_1_3.ipcProcess[1].difName = "shim-3.1.3-3.1.4"
**.R_3_1_3.ipcProcess[1].ipcAddress = "1"
**.R_3_1_3.ipcProcess[2].difName = "shim-3.1.3-3.1.5"
**.R_3_1_3.ipcProcess[2].ipcAddress = "1"

**.R_3_1_4.relayIpc.ipcAddress = "3.1.4"
**.R_3_1_4.ipcProcess[0].difName = "shim-3.1-3.1.4"
**.R_3_1_4.ipcProcess[0].ipcAddress = "2"
**.R_3_1_4.ipcProcess[1].difName = "shim-3.1.3-3.1.4"
**.R_3_1_4.ipcProcess[1].ipcAddress = "2"
**.R_3_1_4.ipcProcess[2].difName = "shim-3.1.4-3.1.5"
**.R_3_1_4.ipcProcess[2].ipcAddress = "1"

**.R_3_1_5.relayIpc.ipcAddress = "3.1.5"
**.R_3_1_5.ipcProcess[0].difName = "shim-3.1.3-3.1.5"
**.R_3_1_5.ipcProcess[0].ipcAddress = "2"
**.R_3_1_5.ipcProcess[1].difName = "shim-3.1.4-3.1.5"
**.R_3_1_5.ipcProcess[1].ipcAddress = "2"

**.R_3_2.relayIpc.ipcAddress = "3.2"
**.R_3_2.ipcProcess[0].difName = "shim-3-3.2"
**.R_3_2.ipcProcess[0].ipcAddress = "2"
**.R_3_2.ipcProcess[1].difName = "shim-3.1-3.2"
**.R_3_2.ipcProcess[1].ipcAddress = "2"
**.R_3_2.ipcProcess[2].difName = "shim-3.2-3.2.1"
**.R_3_2.ipcProcess[2].ipcAddress = "1"
**.R_3_2.ipcProcess[3].difName = "shim-3.2-3.3"
**.R_3_2.ipcProcess[3].ipcAddress = "1"
**.R_3_2.ipcProcess[4].difName = "shim-3.2-3.4"
**.R_3_2.ipcProcess[4].ipcAddress = "1"

**.R_3_2_1.relayIpc.ipcAddress = "3.2.1"
**.R_3_2_1.ipcProcess[0].difName = "shim-3.2-3.2.1"
**.R_3_2_1.ipcProcess[0].ipcAddress = "2"
**.R_3_2_1.ipcProcess[1].difName = "shim-3.2.1-3.2.2"
**.R_3_2_1.ipcProcess[1].ipcAddress = "1"
**.R_3_2_1.ipcProcess[2].difName = "shim-3.2.1-3.2.3"
**.R_3_2_1.ipcProcess[2].ipcAddress = "1"

**.R_3_2_2.relayIpc.ipcAddress = "3.2.2"
**.R_3_2_2.ipcProcess[0].difName = "shim-3.2.1-3.2.2"
**.R_3_2_2.ipcProcess[0].ipcAddress = "2"
**.R_3_2_2.ipcProcess[1].difName = "shim-3.2.2-3.2.3"
**.R_3_2_2.ipcProcess[1].ipcAddress = "1"
**.R_3_2_2.ipcProcess[2].difName = "shim-3.2.2-3.2.4"
**.R_3_2_2.ipcProcess[2].ipcAddress = "1"

**.R_3_2_3.relayIpc.ipcAddress = "3.2.3"
**.R_3_2_3.ipcProcess[0].difName = "shim-3.2.1-3.2.3"
**.R_3_2_3.ipcProcess[0].ipcAddress = "2"
**.R_3_2_3.ipcProcess[1].difName = "shim-3.2.2-3.2.3"
**.R_3_2_3.ipcProcess[1].ipcAddress = "2"
**.R_3_2_3.ipcProcess[2].difName = "shim-3.2.3-3.2.4"
**.R_3_2_3.ipcProcess[2].ipcAddress = "1"
**.R_3_2_3.ipcProcess[3].difName = "shim-3.2.3-3.2.5"
**.R_3_2_3.ipcProcess[3].ipcAddress = "1"

**.R_3_2_4.relayIpc.ipcAddress = "3.2.4"
**.R_3_2_4.ipcProcess[0].difName = "shim-3.2.2-3.2.4"
**.R_3_2_4.ipcProcess[0].ipcAddress = "2"
**.R_3_2_4.ipcProcess[1].difName = "shim-3.2.3-3.2.4"
**.R_3_2_4.ipcProcess[1].ipcAddress = "2"

**.R_3_2_5.relayIpc.ipcAddress = "3.2.5"
**.R_3_2_5.ipcProcess[0].difName = "shim-3.2.3-3.2.5"
**.R_3_2_5.ipcProcess[0].ipcAddress = "2"

**.R_3_3.relayIpc.ipcAddress = "3.3"
**.R_3_3.ipcProcess[0].difName = "shim-3.2-3.3"
**.R_3_3.ipcProcess[0].ipcAddress = "2"
**.R_3_3.ipcProcess[1].difName = "shim-3.3-3.3.1"
**.R_3_3.ipcProcess[1].ipcAddress = "1"
**.R_3_3.ipcProcess[2].difName = "shim-3.3-3.3.4"
**.R_3_3.ipcProcess[2].ipcAddress = "1"
**.R_3_3.ipcProcess[3].difName = "shim-3.3-3.3.5"
**.R_3_3.ipcProcess[3].ipcAddress = "1"

**.R_3_3_1.relayIpc.ipcAddress = "3.3.1"
**.R_3_3_1.ipcProcess[0].difName = "shim-3.3-3.3.1"
**.R_3_3_1.ipcProcess[0].ipcAddress = "2"
**.R_3_3_1.ipcProcess[1].difName = "shim-3.3.1-3.3.3"
**.R_3_3_1.ipcProcess[1].ipcAddress = "1"

**.R_3_3_2.relayIpc.ipcAddress = "3.3.2"
**.R_3_3_2.ipcProcess[0].difName = "shim-3.3.2-3.3.4"
**.R_3_3_2.ipcProcess[0].ipcAddress = "1"

**.R_3_3_3.relayIpc.ipcAddress = "3.3.3"
**.R_3_3_3.ipcProcess[0].difName = "shim-3.3.1-3.3.3"
**.R_3_3_3.ipcProcess[0].ipcAddress = "2"
**.R_3_3_3.ipcProcess[1].difName = "shim-3.3.3-3.3.4"
**.R_3_3_3.ipcProcess[1].ipcAddress = "1"

**.R_3_3_4.relayIpc.ipcAddress = "3.3.4"
**.R_3_3_4.ipcProcess[0].difName = "shim-3.3-3.3.4"
**.R_3_3_4.ipcProcess[0].ipcAddress = "2"
**.R_3_3_4.ipcProcess[1].difName = "shim-3.3.2-3.3.4"
**.R_3_3_4.ipcProcess[1].ipcAddress = "2"
**.R_3_3_4.ipcProcess[2].difName = "shim-3.3.3-3.3.4"
**.R_3_3_4.ipcProcess[2].ipcAddress = "2"

**.R_3_3_5.relayIpc.ipcAddress = "3.3.5"
**.R_3_3_5.ipcProcess[0].difName = "shim-3.3-3.3.5"
**.R_3_3_5.ipcProcess[0].ipcAddress = "2"

**.R_3_4.relayIpc.ipcAddress = "3.4"
**.R_3_4.ipcProcess[0].difName = "shim-3-3.4"
**.R_3_4.ipcProcess[0].ipcAddress = "2"
**.R_3_4.ipcProcess[1].difName = "shim-3.2-3.4"
**.R_3_4.ipcProcess[1].ipcAddress = "2"
**.R_3_4.ipcProcess[2].difName = "shim-3.4-3.4.2"
**.R_3_4.ipcProcess[2].ipcAddress = "1"
**.R_3_4.ipcProcess[3].difName = "shim-3.4-3.4.5"
**.R_3_4.ipcProcess[3].ipcAddress = "1"

**.R_3_4_1.relayIpc.ipcAddress = "3.4.1"
**.R_3_4_1.ipcProcess[0].difName = "shim-3.4.1-3.4.2"
**.R_3_4_1.ipcProcess[0].ipcAddress = "1"

**.R_3_4_2.relayIpc.ipcAddress = "3.4.2"
**.R_3_4_2.ipcProcess[0].difName = "shim-3.4-3.4.2"
**.R_3_4_2.ipcProcess[0].ipcAddress = "2"
**.R_3_4_2.ipcProcess[1].difName = "shim-3.4.1-3.4.2"
**.R_3_4_2.ipcProcess[1].ipcAddress = "2"
**.R_3_4_2.ipcProcess[2].difName = "shim-3.4.2-3.4.5"
**.R_3_4_2.ipcProcess[2].ipcAddress = "1"

**.R_3_4_3.relayIpc.ipcAddress = "3.4.3"
**.R_3_4_3.ipcProcess[0].difName = "shim-3.4.3-3.4.4"
**.R_3_4_3.ipcProcess[0].ipcAddress = "1"
**.R_3_4_3.ipcProcess[1].difName = "shim-3.4.3-3.4.5"
**.R_3_4_3.ipcProcess[1].ipcAddress = "1"

**.R_3_4_4.relayIpc.ipcAddress = "3.4.4"
**.R_3_4_4.ipcProcess[0].difName = "shim-3.4.3-3.4.4"
**.R_3_4_4.ipcProcess[0].ipcAddress = "2"

**.R_3_4_5.relayIpc.ipcAddress = "3.4.5"
**.R_3_4_5.ipcProcess[0].difName = "shim-3.4-3.4.5"
**.R_3_4_5.ipcProcess[0].ipcAddress = "2"
**.R_3_4_5.ipcProcess[1].difName = "shim-3.4.2-3.4.5"
**.R_3_4_5.ipcProcess[1].ipcAddress = "2"
**.R_3_4_5.ipcProcess[2].difName = "shim-3.4.3-3.4.5"
**.R_3_4_5.ipcProcess[2].ipcAddress = "2"




**.flowAllocator.newFlowReqPolicyType = "MinComparer"
**.ra.qoscubesData = xmldoc("QoS.xml", "Configuration/QoSCubesSet")
**.difAllocator.configData = xmldoc("config.xml", "Configuration/DA")
**.difAllocator.directory.configData = xmldoc("config.xml", "Configuration/DA")
**.ra.preallocation = xmldoc("connections.xml", "Configuration/ConnectionSet")

**.relayIpc.resourceAllocator.pdufgPolicyName = "HierarchicalGenerator"
**.relayIpc.routingPolicyName = "TDomainRouting"
**.relayIpc.relayAndMux.ForwardingPolicyName = "HierarchicalTable"


**.R_2_1_5.**.routingPolicy.printAtEnd = true
**.R_2_1_5.**.printAtEnd = true
**.printAtEnd = false



