[General]
network = net
**.pduTracing = false
**.scalar-recording = false
**.vector-recording = false

seed-set = 76768

sim-time-limit = 1500s

**.difAllocator.directory.configData = xmldoc("directory.xml", "DA")
**.ra.preallocation = xmldoc("connectionset.xml", "ConnectionSet")
**.flowAllocator.newFlowReqPolicyType = "MinComparer"
**.isSelfEnrolled = true

**.ipcProcess0[*].**.ra.qoscubesData = xmldoc("shimqoscube.xml", "QoSCubesSet")
**.ipcProcess1.**.ra.qoscubesData = xmldoc("qoscube.xml", "QoSCubesSet")
**.ipcProcess1.**.ra.qosReqData = xmldoc("qosreq.xml", "QoSReqSet")
**.ipcProcess2.**.ra.qoscubesData = xmldoc("qoscube.xml", "QoSCubesSet")
**.ipcProcess2.**.ra.qosReqData = xmldoc("qosreq.xml", "QoSReqSet")


##Addresses
**.A.**.ipcAddress = "A"
**.B.**.ipcAddress = "B"
**.C.**.ipcAddress = "C"
**.D.**.ipcAddress = "D"
**.E.**.ipcAddress = "E"
**.F.**.ipcAddress = "F"

##Difs
**.A.ipcProcess0[0].difName = "AD"
**.B.ipcProcess0[0].difName = "BD"
**.C.ipcProcess0[0].difName = "CE"
**.D.ipcProcess0[0].difName = "AD"
**.D.ipcProcess0[1].difName = "BD"
**.D.ipcProcess0[2].difName = "DF"
**.E.ipcProcess0[0].difName = "CE"
**.E.ipcProcess0[1].difName = "EF"
**.F.ipcProcess0[0].difName = "DF"
**.F.ipcProcess0[1].difName = "EF"

**.ipcProcess1.difName = "Fabric"
**.ipcProcess2.difName = "Net"

##Queues

**.defaultThreshQLength = 200
**.defaultMaxQLength =  200

**.ipcProcess2.**.addrComparatorName = "Inj_Comparator"

## Routing default Link state
**.ipcProcess1.resourceAllocator.pdufgPolicyName = "SimpleGenerator"
**.ipcProcess1.relayAndMux.ForwardingPolicyName = "MiniTable"
**.ipcProcess1.routingPolicyName = "SimpleLS"

**.ipcProcess2.resourceAllocator.pdufgPolicyName = "OFStaticGenerator"
**.ipcProcess2.relayAndMux.ForwardingPolicyName = "SimpleTable"
**.ipcProcess2.routingPolicyName = "DummyRouting"


## Infection
**.Inj.ini = 50
**.Inj.fin = 100
**.Inj.data = xmldoc("data.xml", "flows")

[Config DQ]

**.defaultThreshQLength = 5000
**.defaultMaxQLength =  5000

**.ipcProcess0[*].**.queueAllocPolicyName = "QueuePerNFlow"
**.ipcProcess0[*].**.queueIdGenName = "IDPerNFlow"
**.ipcProcess0[*].relayAndMux.maxQPolicyName = "TailDrop"
**.ipcProcess0[*].relayAndMux.qMonitorPolicyName = "IterativeStopMonitor"
**.ipcProcess0[*].relayAndMux.schedPolicyName = "IterativeScheduling"

**.ipcProcess1.**.queueAllocPolicyName = "QueuePerNQoS"
**.ipcProcess1.**.queueIdGenName = "IDPerNQoS"
**.ipcProcess1.relayAndMux.qMonitorPolicyName = "QTAMonitor"
**.ipcProcess1.relayAndMux.schedPolicyName = "QTASch"
**.ipcProcess1.relayAndMux.queueMonitorPolicy.shapersData = xmldoc("QTA.xml", "Configuration/shapers")
**.ipcProcess1.relayAndMux.queueMonitorPolicy.muxData = xmldoc("QTA.xml", "Configuration/mux")


**.A.ipcProcess1.relayAndMux.queueMonitorPolicy.recordStats = true
**.A.ipcProcess1.relayAndMux.queueMonitorPolicy.nodeName = "A"
**.B.ipcProcess1.relayAndMux.queueMonitorPolicy.recordStats = true
**.B.ipcProcess1.relayAndMux.queueMonitorPolicy.nodeName = "B"

**.ipcProcess1.relayAndMux.queueMonitorPolicy.saveStats = true
**.ipcProcess1.relayAndMux.queueMonitorPolicy.printAtEnd = true
**.ipcProcess1.relayAndMux.queueMonitorPolicy.pdu_IO = true
**.ipcProcess1.relayAndMux.queueMonitorPolicy.data_IO = true
**.ipcProcess1.relayAndMux.queueMonitorPolicy.pdu_IOi = true
**.ipcProcess1.relayAndMux.queueMonitorPolicy.data_IOi = true

**.ipcProcess1.relayAndMux.queueMonitorPolicy.first_interval = 50.0
**.ipcProcess1.relayAndMux.queueMonitorPolicy.last_interval = 110.0






















