[General]

sim-time-limit = 62s
seed-set = ${runnumber}
**.vector-recording = true

**.host1.applicationProcess1.apName = "App1"
**.host2.applicationProcess1.apName = "App2"
#**.host3.applicationProcess1.apName = "App3"
**.host4.applicationProcess1.apName = "App4"
**.host5.applicationProcess1.apName = "App5"
**.apType = "APStream"

#Static addressing: lower IPC layer
**.host1.ipcProcess0.ipcAddress = "1"
**.host2.ipcProcess0.ipcAddress = "2"
#**.host3.ipcProcess0.ipcAddress = "3"
**.host4.ipcProcess0.ipcAddress = "4"
**.host5.ipcProcess0.ipcAddress = "5"


**.router1.ipcProcess0.ipcAddress = "6"
**.router1.ipcProcess1.ipcAddress = "7"
**.router1.ipcProcess2.ipcAddress = "8"
**.router2.ipcProcess0.ipcAddress = "9"
**.router2.ipcProcess1.ipcAddress = "10"
#**.router2.ipcProcess2.ipcAddress = "11"
**.router3.ipcProcess0.ipcAddress = "12"
**.router3.ipcProcess1.ipcAddress = "13"
**.router3.ipcProcess2.ipcAddress = "14"

**.host1.ipcProcess0.difName = "Layer01"
**.router1.ipcProcess0.difName = "Layer01"

**.host2.ipcProcess0.difName = "Layer02"
**.router1.ipcProcess1.difName = "Layer02"

**.router1.ipcProcess2.difName = "Layer03"
**.router2.ipcProcess0.difName = "Layer03"

**.router2.ipcProcess1.difName = "Layer04"
**.router3.ipcProcess0.difName = "Layer04"

#**.router2.ipcProcess2.difName = "Layer05"
#**.host3.ipcProcess0.difName = "Layer05"

**.router3.ipcProcess1.difName = "Layer06"
**.host4.ipcProcess0.difName = "Layer06"

**.router3.ipcProcess2.difName = "Layer07"
**.host5.ipcProcess0.difName = "Layer07"

#Static addressing: higher IPC layer
**.host1.ipcProcess1.ipcAddress = "101"
**.host2.ipcProcess1.ipcAddress = "102"
#**.host3.ipcProcess1.ipcAddress = "103"
**.host4.ipcProcess1.ipcAddress = "104"
**.host5.ipcProcess1.ipcAddress = "105"

**.router1.relayIpc.ipcAddress = "106"
**.router2.relayIpc.ipcAddress = "107"
**.router3.relayIpc.ipcAddress = "108"

**.host*.ipcProcess1.difName = "Layer11"
**.router*.relayIpc.difName = "Layer11"

#DIF Allocator settings
**.host1.difAllocator.configData = xmldoc("config.xml", "Configuration/Host[@id='host1']/DA")
**.host2.difAllocator.configData = xmldoc("config.xml", "Configuration/Host[@id='host2']/DA")
#**.host3.difAllocator.configData = xmldoc("config.xml", "Configuration/Host[@id='host3']/DA")
**.host4.difAllocator.configData = xmldoc("config.xml", "Configuration/Host[@id='host4']/DA")
**.host5.difAllocator.configData = xmldoc("config.xml", "Configuration/Host[@id='host5']/DA")
#
**.router1.difAllocator.configData = xmldoc("config.xml", "Configuration/Router[@id='router1']/DA")
**.router2.difAllocator.configData = xmldoc("config.xml", "Configuration/Router[@id='router2']/DA")
**.router3.difAllocator.configData = xmldoc("config.xml", "Configuration/Router[@id='router3']/DA")
#
##Directory settings
**.host2.difAllocator.directory.configData = xmldoc("config.xml", "Configuration/Host[@id='host1']/DA")
#**.host3.difAllocator.directory.configData = xmldoc("config.xml", "Configuration/Host[@id='host1']/DA")
**.host4.difAllocator.directory.configData = xmldoc("config.xml", "Configuration/Host[@id='host1']/DA")
**.host5.difAllocator.directory.configData = xmldoc("config.xml", "Configuration/Host[@id='host1']/DA")
#
**.router2.difAllocator.directory.configData = xmldoc("config.xml", "Configuration/Router[@id='router1']/DA")
**.router3.difAllocator.directory.configData = xmldoc("config.xml", "Configuration/Router[@id='router1']/DA")
#
##QoS Cube sets
#**.ra.qoscubesData = xmldoc("config.xml", "Configuration/QoSCubesSet")

# flows to allocate at the beginning
#**.router1.relayIpc.resourceAllocator.ra.preallocation = \
#    xmldoc("config.xml", "Configuration/Router[@id='router1']/IPC[@id='relayIpc']/RA/Flows")
#
#**.router3.relayIpc.resourceAllocator.ra.preallocation = \
#    xmldoc("config.xml", "Configuration/Router[@id='router3']/IPC[@id='relayIpc']/RA/Flows")

#
# Dif allocator configurations
#
#**.host*.difAllocator.configData = xmldoc("config.xml", "Configuration/Node[@id='all']/DA")
#**.host*.difAllocator.directory.configData = xmldoc("config.xml", "Configuration/Node[@id='all']/DA")
#**.router*.difAllocator.configData = xmldoc("config.xml", "Configuration/Node[@id='all']/DA")
#**.router*.difAllocator.directory.configData = xmldoc("config.xml", "Configuration/Node[@id='all']/DA")
**.ra.qoscubesData = xmldoc("config.xml", "Configuration/QoSCubesSet")

# flows to allocate at the beginning
**.ra.preallocation = \
    xmldoc("config.xml", "Configuration/ConnectionSets/ConnectionSet[@id='all']/")


[Config PingNoise]
fingerprint = "e696-3797"
network = SmallNetwork2
#PingApp setup
**.host1.applicationProcess1.apInst.dstApName = "App4"
**.host1.applicationProcess1.apInst.startAt = 1s
**.host1.applicationProcess1.apInst.interval = 0.005s #0.005s
**.host1.applicationProcess1.apInst.stopAt = 32s
**.host1.applicationProcess1.AEMonitor.**.iae.size = 536B
**.host1.applicationProcess1.AEMonitor.**.iae.forceOrder = true
#**.host1.ipcProcess1.efcp.efcp.txControlPolicy = "DTCPTxControlPolicyTCPTahoe"
#**.host1.ipcProcess1.efcp.efcp.rttEstimatorPolicy = "DTPRTTEstimatorPolicyTCP"
#**.host1.ipcProcess1.efcp.efcp.senderAckPolicy = "DTCPSenderAckPolicyTCP"

**.host2.applicationProcess1.apInst.dstApName = "App5"
**.host2.applicationProcess1.apInst.startAt = 1s
**.host2.applicationProcess1.apInst.interval = 0.005s #0.005s
**.host2.applicationProcess1.apInst.stopAt = 32s
**.host2.applicationProcess1.AEMonitor.**.iae.size = 536B
**.host2.applicationProcess1.AEMonitor.**.iae.forceOrder = true
#**.host2.ipcProcess1.efcp.efcp.txControlPolicy = "DTCPTxControlPolicyTCPTahoe"
#**.host2.ipcProcess1.efcp.efcp.rttEstimatorPolicy = "DTPRTTEstimatorPolicyTCP"
#**.host2.ipcProcess1.efcp.efcp.senderAckPolicy = "DTCPSenderAckPolicyTCP"

**.defaultThreshQLength = 50000
**.defaultMaxQLength = 50000

#**.efcp.rtt = 10s
**.host*.ipcProcess*.efcp.efcp.initialSenderCredit = 20
**.host*.ipcProcess*.efcp.efcp.maxClosedWinQueLen = 50000
**.host*.ipcProcess*.efcp.efcp.rcvCredit = 20

#**.host*.ipcProcess0.efcp.efcp.initialSenderCredit = 50000
#**.host*.ipcProcess0.efcp.efcp.maxClosedWinQueLen = 50000

**.router*.ipcProcess*.efcp.efcp.initialSenderCredit = 20
**.router*.ipcProcess*.efcp.efcp.maxClosedWinQueLen = 50000
**.router*.ipcProcess*.efcp.efcp.rcvCredit = 20

#**.router*.ipcProcess0.efcp.efcp.initialSenderCredit = 50000
#**.router*.ipcProcess0.efcp.efcp.maxClosedWinQueLen = 50000


#**.host*.ipcProcess1.efcp.efcp.rcvCredit = 50000
#**.router*.ipcProcess1.efcp.efcp.rcvCredit = 50000


[Config PingSlowTCP]
fingerprint = "e696-3797"
network = SmallNetwork2
#PingApp setup
**.host1.applicationProcess1.applicationEntity.iae.dstApName = "App4"
**.host1.applicationProcess1.applicationEntity.iae.dstAeName = "Stream4"
**.host1.applicationProcess1.applicationEntity.iae.startAt = 1s
**.host1.applicationProcess1.applicationEntity.iae.beginStreamAt = 2s
**.host1.applicationProcess1.applicationEntity.iae.endStreamAt = 32s
**.host1.applicationProcess1.applicationEntity.iae.interval = 0.001s #0.005s
**.host1.applicationProcess1.applicationEntity.iae.stopAt = 32s
**.host1.applicationProcess1.applicationEntity.iae.size = 1024B
**.host1.applicationProcess1.applicationEntity.iae.forceOrder = true
**.host1.ipcProcess1.efcp.efcp.txControlPolicy = "DTCPTxControlPolicyTCPTahoe"
**.host1.ipcProcess1.efcp.efcp.rttEstimatorPolicy = "DTPRTTEstimatorPolicyTCP"
**.host1.ipcProcess1.efcp.efcp.senderAckPolicy = "DTCPSenderAckPolicyTCP"

**.host2.applicationProcess1.applicationEntity.iae.dstApName = "App5"
**.host2.applicationProcess1.applicationEntity.iae.dstAeName = "Stream5"
**.host2.applicationProcess1.applicationEntity.iae.startAt = 1s
**.host2.applicationProcess1.applicationEntity.iae.beginStreamAt = 2s
**.host2.applicationProcess1.applicationEntity.iae.endStreamAt = 32s
**.host2.applicationProcess1.applicationEntity.iae.interval = 0.001s #0.005s
**.host2.applicationProcess1.applicationEntity.iae.stopAt = 32s
**.host2.applicationProcess1.applicationEntity.iae.size = 1024B
**.host2.applicationProcess1.applicationEntity.iae.forceOrder = true
**.host2.ipcProcess1.efcp.efcp.txControlPolicy = "DTCPTxControlPolicyTCPTahoe"
**.host2.ipcProcess1.efcp.efcp.rttEstimatorPolicy = "DTPRTTEstimatorPolicyTCP"
**.host2.ipcProcess1.efcp.efcp.senderAckPolicy = "DTCPSenderAckPolicyTCP"

**.defaultThreshQLength = 50000
**.defaultMaxQLength = 50000

#**.efcp.rtt = 10s
**.host*.ipcProcess*.efcp.efcp.initialSenderCredit = 20
**.host*.ipcProcess*.efcp.efcp.maxClosedWinQueLen = 50000
**.host*.ipcProcess*.efcp.efcp.rcvCredit = 20

#**.host*.ipcProcess0.efcp.efcp.initialSenderCredit = 50000
#**.host*.ipcProcess0.efcp.efcp.maxClosedWinQueLen = 50000

**.router*.ipcProcess*.efcp.efcp.initialSenderCredit = 20
**.router*.ipcProcess*.efcp.efcp.maxClosedWinQueLen = 50000
**.router*.ipcProcess*.efcp.efcp.rcvCredit = 20

#**.router*.ipcProcess0.efcp.efcp.initialSenderCredit = 50000
#**.router*.ipcProcess0.efcp.efcp.maxClosedWinQueLen = 50000


#**.host*.ipcProcess1.efcp.efcp.rcvCredit = 50000
#**.router*.ipcProcess1.efcp.efcp.rcvCredit = 50000

[Config PingSlowTCP-UpstreamNotifier-FO]
fingerprint = "e696-3797"
network = SmallNetwork2
#PingApp setup
**.host1.applicationProcess1.applicationEntity.iae.dstApName = "App4"
**.host1.applicationProcess1.applicationEntity.iae.dstAeName = "Stream4"
**.host1.applicationProcess1.applicationEntity.iae.startAt = 1s
**.host1.applicationProcess1.applicationEntity.iae.beginStreamAt = 2s
**.host1.applicationProcess1.applicationEntity.iae.endStreamAt = 162s
**.host1.applicationProcess1.applicationEntity.iae.interval = 0.004s #0.005s
**.host1.applicationProcess1.applicationEntity.iae.stopAt = 162s
**.host1.applicationProcess1.applicationEntity.iae.size = 536B
**.host1.applicationProcess1.applicationEntity.iae.forceOrder = true
**.host1.ipcProcess1.efcp.efcp.txControlPolicy = "DTCPTxControlPolicyTCPTahoe"
#**.host1.ipcProcess1.efcp.efcp.txControlPolicy.packetSize = 536;
**.host1.ipcProcess1.efcp.efcp.rttEstimatorPolicy = "DTPRTTEstimatorPolicyTCP"
**.host1.ipcProcess1.efcp.efcp.senderAckPolicy = "DTCPSenderAckPolicyTCP"

**.host2.applicationProcess1.applicationEntity.iae.dstApName = "App5"
**.host2.applicationProcess1.applicationEntity.iae.dstAeName = "Stream5"
**.host2.applicationProcess1.applicationEntity.iae.startAt = 1s
**.host2.applicationProcess1.applicationEntity.iae.beginStreamAt = 2s
**.host2.applicationProcess1.applicationEntity.iae.endStreamAt = 162s
**.host2.applicationProcess1.applicationEntity.iae.interval = 0.014s #0.005s
**.host2.applicationProcess1.applicationEntity.iae.stopAt = 162s
**.host2.applicationProcess1.applicationEntity.iae.size = 536B
**.host2.applicationProcess1.applicationEntity.iae.forceOrder = true
**.host2.ipcProcess1.efcp.efcp.txControlPolicy = "DTCPTxControlPolicyTCPTahoe"
#**.host2.ipcProcess1.efcp.efcp.txControlPolicy.packetSize = 536;
**.host2.ipcProcess1.efcp.efcp.rttEstimatorPolicy = "DTPRTTEstimatorPolicyTCP"
**.host2.ipcProcess1.efcp.efcp.senderAckPolicy = "DTCPSenderAckPolicyTCP"

# Upstream Notification
**.router3.relayIpc.relayAndMux.defaultMaxQLength = 20
**.router3.relayIpc.relayAndMux.defaultThreshQLength = 2
**.router3.relayIpc.relayAndMux.maxQPolicyName = "REDUpstreamNotifier"
**.router3.ipcProcess2.efcp.efcp.maxClosedWinQueLen = 2
**.router3.ipcProcess2.efcp.efcp.initialSenderCredit = 20
**.host5.ipcProcess0.efcp.efcp.rcvCredit = 20
# End; Upstream Notification

#**.efcp.rtt = 10s
**.host*.ipcProcess*.efcp.efcp.initialSenderCredit = 122
**.host*.ipcProcess*.efcp.efcp.maxClosedWinQueLen = 100#50000
**.host*.ipcProcess*.efcp.efcp.rcvCredit = 122

**.router*.ipcProcess*.efcp.efcp.initialSenderCredit = 122
**.router*.ipcProcess*.efcp.efcp.maxClosedWinQueLen = 50000
**.router*.ipcProcess*.efcp.efcp.rcvCredit = 122

**.defaultThreshQLength = 50000
**.defaultMaxQLength = 50000

[Config PingSlowFC]
fingerprint = "e696-3797"
network = SmallNetwork2
#PingApp setup
**.host1.applicationProcess1.applicationEntity.iae.dstApName = "App4"
**.host1.applicationProcess1.applicationEntity.iae.dstAeName = "Stream4"
**.host1.applicationProcess1.applicationEntity.iae.startAt = 1s
**.host1.applicationProcess1.applicationEntity.iae.beginStreamAt = 2s
**.host1.applicationProcess1.applicationEntity.iae.endStreamAt = 32s
**.host1.applicationProcess1.applicationEntity.iae.interval = 0.001s #0.005s
**.host1.applicationProcess1.applicationEntity.iae.stopAt = 32s
**.host1.applicationProcess1.applicationEntity.iae.size = 1024B
**.host1.applicationProcess1.applicationEntity.iae.forceOrder = true
#**.host1.ipcProcess1.efcp.efcp.txControlPolicy = "DTCPTxControlPolicyTCPTahoe"
#**.host1.ipcProcess1.efcp.efcp.rttEstimatorPolicy = "DTPRTTEstimatorPolicyTCP"
#**.host1.ipcProcess1.efcp.efcp.senderAckPolicy = "DTCPSenderAckPolicyTCP"

**.host2.applicationProcess1.applicationEntity.iae.dstApName = "App5"
**.host2.applicationProcess1.applicationEntity.iae.dstAeName = "Stream5"
**.host2.applicationProcess1.applicationEntity.iae.startAt = 1s
**.host2.applicationProcess1.applicationEntity.iae.beginStreamAt = 2s
**.host2.applicationProcess1.applicationEntity.iae.endStreamAt = 32s
**.host2.applicationProcess1.applicationEntity.iae.interval = 0.001s #0.005s
**.host2.applicationProcess1.applicationEntity.iae.stopAt = 32s
**.host2.applicationProcess1.applicationEntity.iae.size = 1024B
**.host2.applicationProcess1.applicationEntity.iae.forceOrder = true
#**.host2.ipcProcess1.efcp.efcp.txControlPolicy = "DTCPTxControlPolicyTCPTahoe"
#**.host2.ipcProcess1.efcp.efcp.rttEstimatorPolicy = "DTPRTTEstimatorPolicyTCP"
#**.host2.ipcProcess1.efcp.efcp.senderAckPolicy = "DTCPSenderAckPolicyTCP"

**.defaultThreshQLength = 50000
**.defaultMaxQLength = 50000

#**.efcp.rtt = 10s
**.host*.ipcProcess*.efcp.efcp.initialSenderCredit = 20
**.host*.ipcProcess*.efcp.efcp.maxClosedWinQueLen = 50000
**.host*.ipcProcess*.efcp.efcp.rcvCredit = 20

**.router*.ipcProcess*.efcp.efcp.initialSenderCredit = 20
**.router*.ipcProcess*.efcp.efcp.maxClosedWinQueLen = 50000
**.router*.ipcProcess*.efcp.efcp.rcvCredit = 20

[Config PingSlowTCP-UpstreamNotifier-PF]
fingerprint = "e696-3797"
network = SmallNetwork3
#PingApp setup
**.host1.applicationProcess1.applicationEntity.iae.dstApName = "App4"
**.host1.applicationProcess1.applicationEntity.iae.dstAeName = "Stream4"
**.host1.applicationProcess1.applicationEntity.iae.startAt = 1s
**.host1.applicationProcess1.applicationEntity.iae.beginStreamAt = 2s
**.host1.applicationProcess1.applicationEntity.iae.endStreamAt = 62s
**.host1.applicationProcess1.applicationEntity.iae.interval = 0.004s #0.005s
**.host1.applicationProcess1.applicationEntity.iae.stopAt = 62s
**.host1.applicationProcess1.applicationEntity.iae.size = 536B
**.host1.applicationProcess1.applicationEntity.iae.forceOrder = true
**.host1.ipcProcess1.efcp.efcp.txControlPolicy = "DTCPTxControlPolicyTCPTahoe"
**.host1.ipcProcess1.efcp.efcp.rttEstimatorPolicy = "DTPRTTEstimatorPolicyTCP"
**.host1.ipcProcess1.efcp.efcp.senderAckPolicy = "DTCPSenderAckPolicyTCP"

**.host2.applicationProcess1.applicationEntity.iae.dstApName = "App5"
**.host2.applicationProcess1.applicationEntity.iae.dstAeName = "Stream5"
**.host2.applicationProcess1.applicationEntity.iae.startAt = 1s
**.host2.applicationProcess1.applicationEntity.iae.beginStreamAt = 2s
**.host2.applicationProcess1.applicationEntity.iae.endStreamAt = 62s
**.host2.applicationProcess1.applicationEntity.iae.interval = 0.004s #0.005s
**.host2.applicationProcess1.applicationEntity.iae.stopAt = 62s
**.host2.applicationProcess1.applicationEntity.iae.size = 536B
**.host2.applicationProcess1.applicationEntity.iae.forceOrder = true
**.host2.ipcProcess1.efcp.efcp.txControlPolicy = "DTCPTxControlPolicyTCPTahoe"
**.host2.ipcProcess1.efcp.efcp.rttEstimatorPolicy = "DTPRTTEstimatorPolicyTCP"
**.host2.ipcProcess1.efcp.efcp.senderAckPolicy = "DTCPSenderAckPolicyTCP"

# Upstream Notification
**.router2.relayIpc.relayAndMux.defaultMaxQLength = 20
**.router2.relayIpc.relayAndMux.defaultThreshQLength = 2
**.router2.relayIpc.relayAndMux.maxQPolicyName = "REDUpstreamNotifier"
**.router2.ipcProcess1.efcp.efcp.maxClosedWinQueLen = 2
**.router2.ipcProcess1.efcp.efcp.initialSenderCredit = 40
**.router3.ipcProcess0.efcp.efcp.rcvCredit = 40
# End; Upstream Notification

#**.efcp.rtt = 10s
**.host*.ipcProcess*.efcp.efcp.initialSenderCredit = 200
**.host*.ipcProcess*.efcp.efcp.maxClosedWinQueLen = 50000
**.host*.ipcProcess*.efcp.efcp.rcvCredit = 200

**.router*.ipcProcess*.efcp.efcp.initialSenderCredit = 200
**.router*.ipcProcess*.efcp.efcp.maxClosedWinQueLen = 50000
**.router*.ipcProcess*.efcp.efcp.rcvCredit = 200

**.defaultThreshQLength = 50000
**.defaultMaxQLength = 50000

[Config PingSlowTCP-UpstreamNotifier-FI]
fingerprint = "e696-3797"
network = SmallNetwork4
#PingApp setup
**.host1.applicationProcess1.applicationEntity.iae.dstApName = "App4"
**.host1.applicationProcess1.applicationEntity.iae.dstAeName = "Stream4"
**.host1.applicationProcess1.applicationEntity.iae.startAt = 1s
**.host1.applicationProcess1.applicationEntity.iae.beginStreamAt = 2s
**.host1.applicationProcess1.applicationEntity.iae.endStreamAt = 62s
**.host1.applicationProcess1.applicationEntity.iae.interval = 0.004s #0.005s
**.host1.applicationProcess1.applicationEntity.iae.stopAt = 62s
**.host1.applicationProcess1.applicationEntity.iae.size = 536B
**.host1.applicationProcess1.applicationEntity.iae.forceOrder = true
**.host1.ipcProcess1.efcp.efcp.txControlPolicy = "DTCPTxControlPolicyTCPTahoe"
**.host1.ipcProcess1.efcp.efcp.rttEstimatorPolicy = "DTPRTTEstimatorPolicyTCP"
**.host1.ipcProcess1.efcp.efcp.senderAckPolicy = "DTCPSenderAckPolicyTCP"

**.host2.applicationProcess1.applicationEntity.iae.dstApName = "App5"
**.host2.applicationProcess1.applicationEntity.iae.dstAeName = "Stream5"
**.host2.applicationProcess1.applicationEntity.iae.startAt = 1s
**.host2.applicationProcess1.applicationEntity.iae.beginStreamAt = 2s
**.host2.applicationProcess1.applicationEntity.iae.endStreamAt = 62s
**.host2.applicationProcess1.applicationEntity.iae.interval = 0.004s #0.005s
**.host2.applicationProcess1.applicationEntity.iae.stopAt = 62s
**.host2.applicationProcess1.applicationEntity.iae.size = 536B
**.host2.applicationProcess1.applicationEntity.iae.forceOrder = true
**.host2.ipcProcess1.efcp.efcp.txControlPolicy = "DTCPTxControlPolicyTCPTahoe"
**.host2.ipcProcess1.efcp.efcp.rttEstimatorPolicy = "DTPRTTEstimatorPolicyTCP"
**.host2.ipcProcess1.efcp.efcp.senderAckPolicy = "DTCPSenderAckPolicyTCP"

# Upstream Notification
**.router1.relayIpc.relayAndMux.defaultMaxQLength = 15
**.router1.relayIpc.relayAndMux.defaultThreshQLength = 15
**.router1.relayIpc.relayAndMux.maxQPolicyName = "UpstreamNotifier"
**.router1.ipcProcess2.efcp.efcp.maxClosedWinQueLen = 2
**.router1.ipcProcess2.efcp.efcp.initialSenderCredit = 20
**.router2.ipcProcess0.efcp.efcp.rcvCredit = 20
# End; Upstream Notification

#**.efcp.rtt = 10s
**.host*.ipcProcess*.efcp.efcp.initialSenderCredit = 200
**.host*.ipcProcess*.efcp.efcp.maxClosedWinQueLen = 50000
**.host*.ipcProcess*.efcp.efcp.rcvCredit = 200

**.router*.ipcProcess*.efcp.efcp.initialSenderCredit = 200
**.router*.ipcProcess*.efcp.efcp.maxClosedWinQueLen = 50000
**.router*.ipcProcess*.efcp.efcp.rcvCredit = 200

**.defaultThreshQLength = 50000
**.defaultMaxQLength = 50000

[Config Validation-UpstreamNotifier-FO]
#network = SmallNetwork2
network = SmallNetworkPar
SmallNetworkPar.ldelay = ${1.25ms, 6.25ms, 12.5ms, 18.75ms, 25ms, 31.25ms, 37.5ms}
#PingApp setup
#**.host1.applicationProcess1.applicationEntity.iae.dstApName = "App4"
#**.host1.applicationProcess1.applicationEntity.iae.dstAeName = "Stream4"
#**.host1.applicationProcess1.applicationEntity.iae.startAt = 1s
#**.host1.applicationProcess1.applicationEntity.iae.beginStreamAt = 2s
#**.host1.applicationProcess1.applicationEntity.iae.endStreamAt = 162s
#**.host1.applicationProcess1.applicationEntity.iae.interval = 0.004s #0.005s
#**.host1.applicationProcess1.applicationEntity.iae.stopAt = 162s
#**.host1.applicationProcess1.applicationEntity.iae.size = 536B
#**.host1.applicationProcess1.applicationEntity.iae.forceOrder = true
#**.host1.ipcProcess1.efcp.efcp.txControlPolicy = "DTCPTxControlPolicyTCPTahoe"
##**.host1.ipcProcess1.efcp.efcp.txControlPolicy.packetSize = 536;
#**.host1.ipcProcess1.efcp.efcp.rttEstimatorPolicy = "DTPRTTEstimatorPolicyTCP"
#**.host1.ipcProcess1.efcp.efcp.senderAckPolicy = "DTCPSenderAckPolicyTCP"

**.host2.applicationProcess1.applicationEntity.iae.dstApName = "App5"
**.host2.applicationProcess1.applicationEntity.iae.dstAeName = "Stream5"
**.host2.applicationProcess1.applicationEntity.iae.startAt = 1s
**.host2.applicationProcess1.applicationEntity.iae.beginStreamAt = 2s
**.host2.applicationProcess1.applicationEntity.iae.endStreamAt = 162s
**.host2.applicationProcess1.applicationEntity.iae.interval = 0.002s#0.010s#0.014s #0.005s
**.host2.applicationProcess1.applicationEntity.iae.stopAt = 162s
**.host2.applicationProcess1.applicationEntity.iae.size = 536B
**.host2.applicationProcess1.applicationEntity.iae.forceOrder = true
**.host2.ipcProcess1.efcp.efcp.txControlPolicy = "DTCPTxControlPolicyTCPTahoe"
#**.host2.ipcProcess1.efcp.efcp.txControlPolicy.packetSize = 536;
**.host2.ipcProcess1.efcp.efcp.rttEstimatorPolicy = "DTPRTTEstimatorPolicyTCP"
**.host2.ipcProcess1.efcp.efcp.senderAckPolicy = "DTCPSenderAckPolicyTCP"

# Upstream Notification
**.router3.relayIpc.relayAndMux.defaultMaxQLength = 10
**.router3.relayIpc.relayAndMux.defaultThreshQLength = 10
**.router3.relayIpc.relayAndMux.maxQPolicyName = "UpstreamNotifier"

**.router3.ipcProcess2.efcp.efcp.initialSenderCredit = 450
**.host5.ipcProcess0.efcp.efcp.rcvCredit = 450

**.router3.ipcProcess2.relayAndMux.defaultMaxQLength = 80
**.router3.ipcProcess2.relayAndMux.defaultThreshQLength = 50
**.router3.ipcProcess2.relayAndMux.maxQPolicyName = "UpstreamNotifier"
**.router3.ipcProcess2.efcp.efcp.txControlPolicy = "DTCPTxControlPolicyTCPTahoe"
**.router3.ipcProcess2.efcp.efcp.rttEstimatorPolicy = "DTPRTTEstimatorPolicyTCP"
**.router3.ipcProcess2.efcp.efcp.senderAckPolicy = "DTCPSenderAckPolicyTCP"
**.router3.ipcProcess2.efcp.efcp.maxClosedWinQueLen = 100
# End; Upstream Notification

#**.efcp.rtt = 10s
**.host*.ipcProcess*.efcp.efcp.initialSenderCredit = 600#122
**.host*.ipcProcess*.efcp.efcp.maxClosedWinQueLen = 100000#50000
**.host*.ipcProcess*.efcp.efcp.rcvCredit = 600#122

**.router*.ipcProcess*.efcp.efcp.initialSenderCredit = 600#122
**.router*.ipcProcess*.efcp.efcp.maxClosedWinQueLen = 50000
**.router*.ipcProcess*.efcp.efcp.rcvCredit = 600#122

**.defaultThreshQLength = 50000
**.defaultMaxQLength = 50000

# End; Upstream Notification

[Config Validation-UpstreamNotifier-FO-Noise]
#network = SmallNetwork2
network = SmallNetworkPar
SmallNetworkPar.ldelay =12.5ms# ${1.25ms, 6.25ms, 12.5ms, 18.75ms, 25ms, 31.25ms, 37.5ms}
SmallNetworkPar.lber = 0.000000# ${1.25ms, 6.25ms, 12.5ms, 18.75ms, 25ms, 31.25ms, 37.5ms}
#PingApp setup
#**.host1.applicationProcess1.applicationEntity.iae.dstApName = "App4"
#**.host1.applicationProcess1.applicationEntity.iae.dstAeName = "Stream4"
#**.host1.applicationProcess1.applicationEntity.iae.startAt = 1s
#**.host1.applicationProcess1.applicationEntity.iae.beginStreamAt = 2s
#**.host1.applicationProcess1.applicationEntity.iae.endStreamAt = 162s
#**.host1.applicationProcess1.applicationEntity.iae.interval = 0.004s #0.005s
#**.host1.applicationProcess1.applicationEntity.iae.stopAt = 162s
#**.host1.applicationProcess1.applicationEntity.iae.size = 536B
#**.host1.applicationProcess1.applicationEntity.iae.forceOrder = true
#**.host1.ipcProcess1.efcp.efcp.txControlPolicy = "DTCPTxControlPolicyTCPTahoe"
##**.host1.ipcProcess1.efcp.efcp.txControlPolicy.packetSize = 536;
#**.host1.ipcProcess1.efcp.efcp.rttEstimatorPolicy = "DTPRTTEstimatorPolicyTCP"
#**.host1.ipcProcess1.efcp.efcp.senderAckPolicy = "DTCPSenderAckPolicyTCP"

**.host2.applicationProcess1.applicationEntity.iae.dstApName = "App5"
**.host2.applicationProcess1.applicationEntity.iae.dstAeName = "Stream5"
**.host2.applicationProcess1.applicationEntity.iae.startAt = 1s
**.host2.applicationProcess1.applicationEntity.iae.beginStreamAt = 2s
**.host2.applicationProcess1.applicationEntity.iae.endStreamAt = 162s
**.host2.applicationProcess1.applicationEntity.iae.interval = 0.002s#0.010s#0.014s #0.005s
**.host2.applicationProcess1.applicationEntity.iae.stopAt = 162s
**.host2.applicationProcess1.applicationEntity.iae.size = 536B
**.host2.applicationProcess1.applicationEntity.iae.forceOrder = true
**.host2.ipcProcess1.efcp.efcp.txControlPolicy = "DTCPTxControlPolicyTCPTahoe"
#**.host2.ipcProcess1.efcp.efcp.txControlPolicy.packetSize = 536;
**.host2.ipcProcess1.efcp.efcp.rttEstimatorPolicy = "DTPRTTEstimatorPolicyTCP"
**.host2.ipcProcess1.efcp.efcp.senderAckPolicy = "DTCPSenderAckPolicyTCP"

# Upstream Notification
**.router3.relayIpc.relayAndMux.defaultMaxQLength = 10
**.router3.relayIpc.relayAndMux.defaultThreshQLength = 10
**.router3.relayIpc.relayAndMux.maxQPolicyName = "UpstreamNotifier"

**.router3.ipcProcess2.efcp.efcp.initialSenderCredit = 450
**.host5.ipcProcess0.efcp.efcp.rcvCredit = 450

**.router3.ipcProcess2.relayAndMux.defaultMaxQLength = 80
**.router3.ipcProcess2.relayAndMux.defaultThreshQLength = 50
**.router3.ipcProcess2.relayAndMux.maxQPolicyName = "UpstreamNotifier"
**.router3.ipcProcess2.efcp.efcp.txControlPolicy = "DTCPTxControlPolicyTCPTahoe"
**.router3.ipcProcess2.efcp.efcp.rttEstimatorPolicy = "DTPRTTEstimatorPolicyTCP"
**.router3.ipcProcess2.efcp.efcp.senderAckPolicy = "DTCPSenderAckPolicyTCP"
**.router3.ipcProcess2.efcp.efcp.maxClosedWinQueLen = 100
# End; Upstream Notification

#**.efcp.rtt = 10s
**.host*.ipcProcess*.efcp.efcp.initialSenderCredit = 600#122
**.host*.ipcProcess*.efcp.efcp.maxClosedWinQueLen = 100000#50000
**.host*.ipcProcess*.efcp.efcp.rcvCredit = 600#122

**.router*.ipcProcess*.efcp.efcp.initialSenderCredit = 600#122
**.router*.ipcProcess*.efcp.efcp.maxClosedWinQueLen = 50000
**.router*.ipcProcess*.efcp.efcp.rcvCredit = 600#122

**.defaultThreshQLength = 50000
**.defaultMaxQLength = 50000

**.host2.ipcProcess1.efcp.efcp.timeoutScale = 10
**.router3.ipcProcess2.efcp.efcp.timeoutScale = 5


# End; Upstream Notification
[Config Drain-Rate-FO]
network = SmallNetwork2
#PingApp setup
#**.host1.applicationProcess1.applicationEntity.iae.dstApName = "App4"
#**.host1.applicationProcess1.applicationEntity.iae.dstAeName = "Stream4"
#**.host1.applicationProcess1.applicationEntity.iae.startAt = 1s
#**.host1.applicationProcess1.applicationEntity.iae.beginStreamAt = 2s
#**.host1.applicationProcess1.applicationEntity.iae.endStreamAt = 162s
#**.host1.applicationProcess1.applicationEntity.iae.interval = 0.004s #0.005s
#**.host1.applicationProcess1.applicationEntity.iae.stopAt = 162s
#**.host1.applicationProcess1.applicationEntity.iae.size = 536B
#**.host1.applicationProcess1.applicationEntity.iae.forceOrder = true
#**.host1.ipcProcess1.efcp.efcp.txControlPolicy = "DTCPTxControlPolicyTCPTahoe"
##**.host1.ipcProcess1.efcp.efcp.txControlPolicy.packetSize = 536;
#**.host1.ipcProcess1.efcp.efcp.rttEstimatorPolicy = "DTPRTTEstimatorPolicyTCP"
#**.host1.ipcProcess1.efcp.efcp.senderAckPolicy = "DTCPSenderAckPolicyTCP"

**.host2.applicationProcess1.applicationEntity.iae.dstApName = "App5"
**.host2.applicationProcess1.applicationEntity.iae.dstAeName = "Stream5"
**.host2.applicationProcess1.applicationEntity.iae.startAt = 1s
**.host2.applicationProcess1.applicationEntity.iae.beginStreamAt = 2s
**.host2.applicationProcess1.applicationEntity.iae.endStreamAt = 162s
**.host2.applicationProcess1.applicationEntity.iae.interval = 0.010s#0.014s #0.005s
**.host2.applicationProcess1.applicationEntity.iae.stopAt = 162s
**.host2.applicationProcess1.applicationEntity.iae.size = 536B
**.host2.applicationProcess1.applicationEntity.iae.forceOrder = true
**.host2.ipcProcess1.efcp.efcp.txControlPolicy = "DTCPTxControlPolicyTCPTahoe"
#**.host2.ipcProcess1.efcp.efcp.txControlPolicy.packetSize = 536;
**.host2.ipcProcess1.efcp.efcp.rttEstimatorPolicy = "DTPRTTEstimatorPolicyTCP"
**.host2.ipcProcess1.efcp.efcp.senderAckPolicy = "DTCPSenderAckPolicyTCP"

# Upstream Notification
**.router3.relayIpc.relayAndMux.defaultMaxQLength = 20
**.router3.relayIpc.relayAndMux.defaultThreshQLength = 20
**.router3.relayIpc.relayAndMux.maxQPolicyName = "ReadRateReducer"
**.router3.ipcProcess2.efcp.efcp.maxClosedWinQueLen = 20

**.router3.ipcProcess0.relayAndMux.defaultMaxQLength = 20
**.router3.ipcProcess0.relayAndMux.defaultThreshQLength = 20
**.router3.ipcProcess0.relayAndMux.maxQPolicyName = "ReadRateReducer"
**.router3.ipcProcess0.efcp.efcp.maxClosedWinQueLen = 20
#**.router3.ipcProcess2.efcp.efcp.initialSenderCredit = 20
#**.host5.ipcProcess0.efcp.efcp.rcvCredit = 20

**.router3.ipcProcess2.relayAndMux.defaultMaxQLength = 20
**.router3.ipcProcess2.relayAndMux.defaultThreshQLength = 20
**.router3.ipcProcess2.relayAndMux.maxQPolicyName = "ReadRateReducer"

**.router3.ipcProcess2.efcp.efcp.initialSenderCredit = 300
**.host5.ipcProcess0.efcp.efcp.rcvCredit = 300
#**.router3.ipcProcess2.relayAndMux.defaultMaxQLength = 15
#**.router3.ipcProcess2.relayAndMux.defaultThreshQLength = 15
#**.router3.ipcProcess2.relayAndMux.maxQPolicyName = "UpstreamNotifier"
#**.router3.ipcProcess2.efcp.efcp.txControlPolicy = "DTCPTxControlPolicyTCPTahoe"
#**.router3.ipcProcess2.efcp.efcp.rttEstimatorPolicy = "DTPRTTEstimatorPolicyTCP"
#**.router3.ipcProcess2.efcp.efcp.senderAckPolicy = "DTCPSenderAckPolicyTCP"
# End; Upstream Notification

#**.efcp.rtt = 10s
**.host*.ipcProcess*.efcp.efcp.initialSenderCredit = 300#122
**.host*.ipcProcess*.efcp.efcp.maxClosedWinQueLen = 100000#50000
**.host*.ipcProcess*.efcp.efcp.rcvCredit = 300#122

**.router*.ipcProcess*.efcp.efcp.initialSenderCredit = 300#122
**.router*.ipcProcess*.efcp.efcp.maxClosedWinQueLen = 50000
**.router*.ipcProcess*.efcp.efcp.rcvCredit = 300#122

**.defaultThreshQLength = 50000
**.defaultMaxQLength = 50000

# End; Upstream Notification

