#--gaixas1 - Seems to work, maintain?
# Marcel -  maintain!

[General]
network = SimpleRelay
check-signals = true
sim-time-limit = 5min
debug-on-errors = true
seed-set = ${runnumber}

**.host1.applicationProcess1.apName = "App1"
**.host2.applicationProcess1.apName = "App2"
**.apType = "APPing"

#Static addressing
**.host1.ipcProcess0.ipcAddress = "1"
**.host2.ipcProcess0.ipcAddress = "2"
**.interiorRouter.ipcProcess0.ipcAddress = "3"
**.interiorRouter.ipcProcess1.ipcAddress = "4"

**.host1.ipcProcess1.ipcAddress = "11"
**.host2.ipcProcess1.ipcAddress = "22"
**.interiorRouter.relayIpc.ipcAddress = "33"

**.host1.ipcProcess0.difName = "Layer01"
**.interiorRouter.ipcProcess0.difName = "Layer01"

**.host2.ipcProcess0.difName = "Layer02"
**.interiorRouter.ipcProcess1.difName = "Layer02"

**.host*.ipcProcess1.difName = "Layer11"
**.interiorRouter.relayIpc.difName = "Layer11"

#DIF Allocator settings
**.host1.difAllocator.configData = xmldoc("config.xml", "Configuration/Host[@id='host1']/DA")
**.host2.difAllocator.configData = xmldoc("config.xml", "Configuration/Host[@id='host2']/DA")
**.interiorRouter.difAllocator.configData = xmldoc("config.xml", "Configuration/Router[@id='interiorRouter']/DA")

#QoS Cube sets
**.ra.qoscubesData = xmldoc("config.xml", "Configuration/QoSCubesSet")

#QoSReq setup
**.ra.qosReqData = xmldoc("config.xml", "Configuration/QoSReqSet")

#Specify AEPing message size
**.host1.applicationProcess1.applicationEntity.iae.size = 256B

#Enrollment settings
**.interiorRouter.**.enrollment.isSelfEnrolled = true
**.host2.ipcProcess1.enrollment.configData = xmldoc("config.xml", "Configuration/Host[@id='host2']/Enrollment")

#Specify timeout of CreateRequest message
#**.fa.createRequestTimeout = 15s

**.printAtEnd = true

[Config Ping]
fingerprint = "529f-aef6"
#PingApp setup
**.host1.applicationProcess1.apInst.dstApName = "App2"
**.host1.applicationProcess1.apInst.startAt = 20s
**.host1.applicationProcess1.apInst.rate = 5
**.host1.applicationProcess1.apInst.stopAt = 200s

[Config PingBigSDU]
fingerprint = "9ae6-9ee2"
#This config is for Sergio Gaixas to test non-fragment on big SDUs
#PingApp setup
**.host1.applicationProcess1.apInst.dstApName = "App2"
**.host1.applicationProcess1.apInst.startAt = 10s
**.host1.applicationProcess1.apInst.rate = 5
**.host1.applicationProcess1.apInst.stopAt = 200s
**.host1.applicationProcess1.AEMonitor.**.iae.size = 10000B
#**.relayAndMux.maxQPolicyName = "DumbMaxQ"
**.relayAndMux.defaultMaxQLength = 150
**.relayAndMux.defaultThreshQLength = 148

**.efcp.maxPDUSize = 100000B
**.efcp.maxSDUSize = 100000B
#**.interiorRouter.ipcProcess*.efcp.maxPDUSize = 10000B

**.efcp.delimitDelay = 0.0s 

[Config PingFragment]
fingerprint = "85a6-2697"
#This config tests EFCP's fragmentation capability
#PingApp setup
**.host1.applicationProcess1.apInst.dstApName = "App2"
**.host1.applicationProcess1.apInst.startAt = 10s
**.host1.applicationProcess1.apInst.rate = 5
**.host1.applicationProcess1.apInst.stopAt = 200s
**.host1.applicationProcess1.AEMonitor.**.iae.size = 10000B
#**.relayAndMux.maxQPolicyName = "DumbMaxQ"
**.relayAndMux.defaultMaxQLength = 150
**.relayAndMux.defaultThreshQLength = 148

**.ipcProcess0.efcp.maxPDUSize = 10000B
**.interiorRouter.ipcProcess*.efcp.maxPDUSize = 10000B

**.host1.ipcProcess0.efcp.delimitDelay = 0.15s 

[Config PingFragmentATime]
fingerprint = "3820-4bed"
#This config tests EFCP's fragmentation capability
#PingApp setup
**.host1.applicationProcess1.apInst.dstApName = "App2"
**.host1.applicationProcess1.apInst.startAt = 10s
**.host1.applicationProcess1.apInst.rate = 5
**.host1.applicationProcess1.apInst.stopAt = 200s
**.host1.applicationProcess1.AEMonitor.**.iae.size = 10000B
#**.relayAndMux.maxQPolicyName = "DumbMaxQ"
**.relayAndMux.defaultMaxQLength = 150
**.relayAndMux.defaultThreshQLength = 148

**.ipcProcess0.efcp.maxPDUSize = 10000B
**.interiorRouter.ipcProcess*.efcp.maxPDUSize = 10000B

**.host1.ipcProcess0.efcp.delimitDelay = 0.15s 

#QoS Cube sets
**.ra.qoscubesData = xmldoc("config.xml", "Configuration/QoSCubesSetATime")

[Config PingRendez]
fingerprint = "4424-27ca"
#PingApp setup
**.host1.applicationProcess1.applicationEntity.iae.dstApName = "App2"
**.host1.applicationProcess1.applicationEntity.iae.dstAeName = "Ping"
**.host1.applicationProcess1.applicationEntity.iae.startAt = 10s
**.host1.applicationProcess1.applicationEntity.iae.rate = 500
**.host1.applicationProcess1.applicationEntity.iae.stopAt = 200s
**.host2.ipcProcess1.efcp.interrupter = true

[Config PingWithPreallocation]
fingerprint = "b4c7-03bc"
**.host1.applicationProcess1.applicationEntity.iae.dstApName = "App2"
**.host1.applicationProcess1.applicationEntity.iae.dstAeName = "Ping"
**.host1.applicationProcess1.applicationEntity.iae.startAt = 20s
**.host1.applicationProcess1.applicationEntity.iae.rate = 5
**.host1.applicationProcess1.applicationEntity.iae.stopAt = 200s

# flows to allocate at the beginning
**.ra.preallocation = \
    xmldoc("config.xml", "Configuration/ConnectionSets/ConnectionSet[@id='PingWithPreallocation']/")

[Config PingWithDiffServ]
fingerprint = "00de-918f"
**.host1.applicationProcess1.applicationEntity.iae.dstApName = "App2"
**.host1.applicationProcess1.applicationEntity.iae.dstAeName = "Ping"
**.host1.applicationProcess1.applicationEntity.iae.startAt = 10s
**.host1.applicationProcess1.applicationEntity.iae.rate = 5
**.host1.applicationProcess1.applicationEntity.iae.stopAt = 200s

# make all RMTs except the ones in relay IPCs differentiate PDUs by (N)-flow
**.host*.ipcProcess*.resourceAllocator.queueAllocPolicyName = "QueuePerNFlow"
**.host*.ipcProcess*.resourceAllocator.queueIdGenName = "IDPerNFlow"
# make relay IPCs' RMTs differentiate PDUs by their QoS
**.relayIpc.resourceAllocator.queueAllocPolicyName = "QueuePerNQoS"
**.relayIpc.resourceAllocator.queueIdGenName = "IDPerNQoS"
#**.resourceAllocator.queueAllocPolicyName = "QueuePerNQoS"
#**.resourceAllocator.queueIdGenName = "IDPerNQoS"

