[General]
network = UseCase1
debug-on-errors = true
sim-time-limit = 5min

**.ipcProcess0.ipcAddress = "1"
**.ipcProcess0.difName = "Layer0"
**.ipcProcess1.ipcAddress = "11"
**.ipcProcess1.difName = "Layer1"

**.host.difAllocator.configData = xmldoc("config.xml", "Configuration/Host[@id='host']/DA")
**.ra.qoscubesData = xmldoc("config.xml", "Configuration/QoSCubesSet")

[Config Ping]
**.applicationProcess1.apName = "Source"
**.applicationProcess2.apName = "Destination"
**.iae.aeName = "MyPing"
**.iae.forceOrder = true
**.applicationEntity.aeType = "AEMyPing"

**.applicationProcess1.applicationEntity.iae.dstApName = "Destination"
**.applicationProcess1.applicationEntity.iae.dstAeName = "MyPing"
**.applicationProcess1.applicationEntity.iae.startAt = 10s
**.applicationProcess1.applicationEntity.iae.pingAt =  15s
**.applicationProcess1.applicationEntity.iae.rate = 5
**.applicationProcess1.applicationEntity.iae.stopAt = 20s

